version 2
run AODVRouting-LNS-75n-9-20150721-04:40:38-4990
attr configname AODVRouting-LNS-75n
attr datetime 20150721-04:40:38
attr experiment AODVRouting-LNS-75n
attr inifile omnetpp.ini
attr iterationvars ""
attr iterationvars2 $repetition=9
attr measurement ""
attr network Prj_Part1_propag.scenarioPRJP1
attr processid 4990
attr repetition 9
attr replication #9
attr resultdir results
attr runnumber 9
attr seedset 9

scalar scenarioPRJP1.radioMedium.propagation 	"Arrival computation count" 	225143446
scalar scenarioPRJP1.radioMedium 	"transmission count" 	3042479
scalar scenarioPRJP1.radioMedium 	"radio frame send count" 	225143446
scalar scenarioPRJP1.radioMedium 	"reception computation count" 	223955535
scalar scenarioPRJP1.radioMedium 	"interference computation count" 	612136215
scalar scenarioPRJP1.radioMedium 	"reception decision computation count" 	18705016
scalar scenarioPRJP1.radioMedium 	"listening decision computation count" 	373005833
scalar scenarioPRJP1.radioMedium 	"reception cache hit" 	85.57184459804
attr unit  %
scalar scenarioPRJP1.radioMedium 	"interference cache hit" 	50
attr unit  %
scalar scenarioPRJP1.radioMedium 	"noise cache hit" 	0
attr unit  %
scalar scenarioPRJP1.radioMedium 	"snir cache hit" 	0
attr unit  %
scalar scenarioPRJP1.radioMedium 	"reception decision cache hit" 	0
attr unit  %
scalar scenarioPRJP1.node[0].app 	"Total sent" 	2610
scalar scenarioPRJP1.node[0].app 	"Total received" 	106
scalar scenarioPRJP1.node[0].app 	"Total deleted" 	35
scalar scenarioPRJP1.node[0].app 	dropPk:count 	35
attr interpolationmode  none
attr source  dropPk
attr title  "packets dropped, count"
scalar scenarioPRJP1.node[0].app 	dropPk:sum(packetBytes) 	17920
attr interpolationmode  none
attr source  dropPk
attr title  "packets dropped, sum(packetBytes)"
scalar scenarioPRJP1.node[0].app 	outOfOrderPk:count 	12
attr interpolationmode  none
attr source  outOfOrderPk
attr title  "packets received out of order, count"
scalar scenarioPRJP1.node[0].app 	outOfOrderPk:sum(packetBytes) 	6144
attr interpolationmode  none
attr source  outOfOrderPk
attr title  "packets received out of order, sum(packetBytes)"
scalar scenarioPRJP1.node[0].app 	rcvdPk:count 	106
attr interpolationmode  none
attr source  rcvdPk
attr title  "packets received, count"
scalar scenarioPRJP1.node[0].app 	rcvdPk:sum(packetBytes) 	54272
attr interpolationmode  none
attr source  rcvdPk
attr title  "packets received, sum(packetBytes)"
statistic scenarioPRJP1.node[0].app 	endToEndDelay:histogram
field count 106
field mean 0.7099769347518
field stddev 2.4281855270025
field sum 75.257555083691
field sqrsum 672.52004839742
field min 0.000958040512
field max 14.899710477947
attr interpolationmode  none
attr source  messageAge(rcvdPk)
attr title  "delay, histogram"
attr unit  s
bin	-INF	0
bin	-6.214604735831	0
bin	-5.3858630323186	0
bin	-4.5571213288062	0
bin	-3.7283796252938	0
bin	-2.8996379217814	0
bin	-2.070896218269	0
bin	-1.2421545147566	0
bin	-0.4134128112442	91
bin	0.4153288922682	4
bin	1.2440705957806	2
bin	2.072812299293	2
bin	2.9015540028054	0
bin	3.7302957063178	1
bin	4.5590374098302	0
bin	5.3877791133426	1
bin	6.216520816855	0
bin	7.0452625203674	1
bin	7.8740042238798	1
bin	8.7027459273922	0
bin	9.5314876309046	1
bin	10.360229334417	0
bin	11.188971037929	0
bin	12.017712741442	1
bin	12.846454444954	0
bin	13.675196148467	0
bin	14.503937851979	1
bin	15.332679555491	0
bin	16.161421259004	0
bin	16.990162962516	0
bin	17.818904666029	0
bin	18.647646369541	0
scalar scenarioPRJP1.node[0].app 	sentPk:count 	2610
attr interpolationmode  none
attr source  sentPk
attr title  "packets sent, count"
scalar scenarioPRJP1.node[0].app 	sentPk:sum(packetBytes) 	1336320
attr interpolationmode  none
attr source  sentPk
attr title  "packets sent, sum(packetBytes)"
scalar scenarioPRJP1.node[0].udp 	droppedPkBadChecksum:count 	0
attr interpolationmode  none
attr title  "packets dropped (checksum error), count"
scalar scenarioPRJP1.node[0].udp 	droppedPkWrongPort:count 	0
attr interpolationmode  none
attr title  "packets dropped (wrong port), count"
scalar scenarioPRJP1.node[0].udp 	passedUpPk:count 	153
attr interpolationmode  none
attr title  "packets passed up, count"
scalar scenarioPRJP1.node[0].udp 	rcvdPk:count 	153
attr interpolationmode  none
attr source  rcvdPk
attr title  "packets received, count"
scalar scenarioPRJP1.node[0].udp 	rcvdPk:sum(packetBytes) 	79560
attr interpolationmode  none
attr source  rcvdPk
attr title  "packets received, sum(packetBytes)"
scalar scenarioPRJP1.node[0].udp 	sentPk:count 	2610
attr interpolationmode  none
attr source  sentPk
attr title  "packets sent, count"
scalar scenarioPRJP1.node[0].udp 	sentPk:sum(packetBytes) 	1357200
attr interpolationmode  none
attr source  sentPk
attr title  "packets sent, sum(packetBytes)"
scalar scenarioPRJP1.node[0].networkLayer.arp 	failedARPResolution:count 	319
attr title  "ARP failed resolutions, count"
scalar scenarioPRJP1.node[0].networkLayer.arp 	completedARPResolution:count 	3606
attr title  "ARP completed resolutions, count"
scalar scenarioPRJP1.node[0].networkLayer.arp 	initiatedARPResolution:count 	419
attr title  "ARP initiated resolutions, count"
scalar scenarioPRJP1.node[0].networkLayer.arp 	sentReply:count 	68
attr title  "ARP replies sent, count"
scalar scenarioPRJP1.node[0].networkLayer.arp 	sentReq:count 	1144
attr title  "ARP request sent, count"
scalar scenarioPRJP1.node[0].mobility 	startTime 	0.1
scalar scenarioPRJP1.node[0].mobility 	totalTime 	949.8
scalar scenarioPRJP1.node[0].mobility 	stopTime 	950
scalar scenarioPRJP1.node[0].mobility 	minSpeed 	2.4756620859834e-13
scalar scenarioPRJP1.node[0].mobility 	maxSpeed 	17.888153059458
scalar scenarioPRJP1.node[0].mobility 	totalDistance 	8176.8841680949
scalar scenarioPRJP1.node[0].mobility 	totalCO2Emission 	2449.4927550138
scalar scenarioPRJP1.node[0].wlan[0].mgmt 	dataQueueLen:max 	32
attr interpolationmode  sample-hold
attr title  "data queue length, max"
scalar scenarioPRJP1.node[0].wlan[0].mgmt 	dataQueueLen:timeavg 	0
attr interpolationmode  sample-hold
attr title  "data queue length, timeavg"
scalar scenarioPRJP1.node[0].wlan[0].mgmt 	dropPkByQueue:count 	0
attr interpolationmode  none
attr source  dropPkByQueue
attr title  "packets dropped by queue, count"
scalar scenarioPRJP1.node[0].wlan[0].mgmt 	dropPkByQueue:sum(packetBytes) 	0
attr interpolationmode  none
attr source  dropPkByQueue
attr title  "packets dropped by queue, sum(packetBytes)"
scalar scenarioPRJP1.node[0].wlan[0].mac 	"number of received packets" 	3422
scalar scenarioPRJP1.node[0].wlan[0].mac 	"number of collisions" 	51962
scalar scenarioPRJP1.node[0].wlan[0].mac 	"number of internal collisions" 	0
scalar scenarioPRJP1.node[0].wlan[0].mac 	"number of retry for AC 0" 	11454
scalar scenarioPRJP1.node[0].wlan[0].mac 	"number of retry for AC 1" 	0
scalar scenarioPRJP1.node[0].wlan[0].mac 	"number of retry for AC 2" 	0
scalar scenarioPRJP1.node[0].wlan[0].mac 	"number of retry for AC 3" 	0
scalar scenarioPRJP1.node[0].wlan[0].mac 	"sent and received bits" 	17657952
scalar scenarioPRJP1.node[0].wlan[0].mac 	"sent packet within AC 0" 	1757
scalar scenarioPRJP1.node[0].wlan[0].mac 	"sent packet within AC 1" 	0
scalar scenarioPRJP1.node[0].wlan[0].mac 	"sent packet within AC 2" 	0
scalar scenarioPRJP1.node[0].wlan[0].mac 	"sent packet within AC 3" 	0
scalar scenarioPRJP1.node[0].wlan[0].mac 	"sent in TXOP " 	0
scalar scenarioPRJP1.node[0].wlan[0].mac 	"sentWithoutRetry AC 0" 	1445
scalar scenarioPRJP1.node[0].wlan[0].mac 	"sentWithoutRetry AC 1" 	0
scalar scenarioPRJP1.node[0].wlan[0].mac 	"sentWithoutRetry AC 2" 	0
scalar scenarioPRJP1.node[0].wlan[0].mac 	"sentWithoutRetry AC 3" 	0
scalar scenarioPRJP1.node[0].wlan[0].mac 	"numGivenUp AC 0" 	1810
scalar scenarioPRJP1.node[0].wlan[0].mac 	"numGivenUp AC 1" 	0
scalar scenarioPRJP1.node[0].wlan[0].mac 	"numGivenUp AC 2" 	0
scalar scenarioPRJP1.node[0].wlan[0].mac 	"numGivenUp AC 3" 	0
scalar scenarioPRJP1.node[0].wlan[0].mac 	"numDropped AC 0" 	0
scalar scenarioPRJP1.node[0].wlan[0].mac 	"numDropped AC 1" 	0
scalar scenarioPRJP1.node[0].wlan[0].mac 	"numDropped AC 2" 	0
scalar scenarioPRJP1.node[0].wlan[0].mac 	"numDropped AC 3" 	0
scalar scenarioPRJP1.node[0].wlan[0].mac 	rcvdPkFromLL:count 	205012
attr interpolationmode  none
attr source  packetReceivedFromLower
attr title  "packets received from lower layer, count"
scalar scenarioPRJP1.node[0].wlan[0].mac 	rcvdPkFromLL:sum(packetBytes) 	36985810
attr interpolationmode  none
attr source  packetReceivedFromLower
attr title  "packets received from lower layer, sum(packetBytes)"
scalar scenarioPRJP1.node[0].wlan[0].mac 	sentDownPk:count 	38832
attr interpolationmode  none
attr source  packetSentToLower
attr title  "packets sent to lower layer, count"
scalar scenarioPRJP1.node[0].wlan[0].mac 	sentDownPk:sum(packetBytes) 	7357664
attr interpolationmode  none
attr source  packetSentToLower
attr title  "packets sent to lower layer, sum(packetBytes)"
scalar scenarioPRJP1.node[0].wlan[0].mac 	rcvdPkFromHL:count 	23956
attr interpolationmode  none
attr source  packetReceivedFromUpper
attr title  "packets received from higher layer, count"
scalar scenarioPRJP1.node[0].wlan[0].mac 	rcvdPkFromHL:sum(packetBytes) 	2901292
attr interpolationmode  none
attr source  packetReceivedFromUpper
attr title  "packets received from higher layer, sum(packetBytes)"
scalar scenarioPRJP1.node[0].wlan[0].mac 	passedUpPk:count 	87263
attr interpolationmode  none
attr source  packetSentToUpper
attr title  "packets passed to higher layer, count"
scalar scenarioPRJP1.node[0].wlan[0].mac 	passedUpPk:sum(packetBytes) 	8057088
attr interpolationmode  none
attr source  packetSentToUpper
attr title  "packets passed to higher layer, sum(packetBytes)"
statistic scenarioPRJP1.node[0].wlan[0].radio 	radioChannel:histogram
field count 1
field mean 3
field stddev -nan
field sum 3
field sqrsum 9
field min 3
field max 3
attr interpolationmode  sample-hold
attr source  radioChannelChanged
attr title  "Radio channel, histogram"
bin	-INF	0
bin	2	0
bin	3	1
bin	4	0
scalar scenarioPRJP1.node[0].wlan[0].radio 	transmissionState:count 	155328
attr interpolationmode  sample-hold
attr source  transmissionStateChanged
attr title  "Radio transmission state, count"
scalar scenarioPRJP1.node[0].wlan[0].radio 	receptionState:count 	501083
attr interpolationmode  sample-hold
attr source  receptionStateChanged
attr title  "Radio reception state, count"
scalar scenarioPRJP1.node[0].wlan[0].radio 	radioMode:count 	77666
attr interpolationmode  sample-hold
attr source  radioModeChanged
attr title  "Radio mode, count"
statistic scenarioPRJP1.node[0].wlan[0].radio 	symbolErrorRate:histogram
field count 0
field mean -nan
field stddev -nan
field sum 0
field sqrsum 0
field min -nan
field max -nan
attr source  symbolErrorRate
attr title  "Symbol error rate, histogram"
bin	-INF	0
bin	-0.5	0
bin	-0.46666666666667	0
bin	-0.43333333333333	0
bin	-0.4	0
bin	-0.36666666666667	0
bin	-0.33333333333333	0
bin	-0.3	0
bin	-0.26666666666667	0
bin	-0.23333333333333	0
bin	-0.2	0
bin	-0.16666666666667	0
bin	-0.13333333333333	0
bin	-0.1	0
bin	-0.066666666666667	0
bin	-0.033333333333333	0
bin	0	0
bin	0.033333333333333	0
bin	0.066666666666667	0
bin	0.1	0
bin	0.13333333333333	0
bin	0.16666666666667	0
bin	0.2	0
bin	0.23333333333333	0
bin	0.26666666666667	0
bin	0.3	0
bin	0.33333333333333	0
bin	0.36666666666667	0
bin	0.4	0
bin	0.43333333333333	0
bin	0.46666666666667	0
bin	0.5	0
statistic scenarioPRJP1.node[0].wlan[0].radio 	bitErrorRate:histogram
field count 0
field mean -nan
field stddev -nan
field sum 0
field sqrsum 0
field min -nan
field max -nan
attr source  bitErrorRate
attr title  "Bit error rate, histogram"
bin	-INF	0
bin	-0.5	0
bin	-0.46666666666667	0
bin	-0.43333333333333	0
bin	-0.4	0
bin	-0.36666666666667	0
bin	-0.33333333333333	0
bin	-0.3	0
bin	-0.26666666666667	0
bin	-0.23333333333333	0
bin	-0.2	0
bin	-0.16666666666667	0
bin	-0.13333333333333	0
bin	-0.1	0
bin	-0.066666666666667	0
bin	-0.033333333333333	0
bin	0	0
bin	0.033333333333333	0
bin	0.066666666666667	0
bin	0.1	0
bin	0.13333333333333	0
bin	0.16666666666667	0
bin	0.2	0
bin	0.23333333333333	0
bin	0.26666666666667	0
bin	0.3	0
bin	0.33333333333333	0
bin	0.36666666666667	0
bin	0.4	0
bin	0.43333333333333	0
bin	0.46666666666667	0
bin	0.5	0
statistic scenarioPRJP1.node[0].wlan[0].radio 	packetErrorRate:histogram
field count 205012
field mean 0.21878161098976
field stddev 0.40310745694817
field sum 44852.855632233
field sqrsum 43126.369943233
field min 0
field max 1
attr source  packetErrorRate
attr title  "Packet error rate, histogram"
bin	-INF	0
bin	-0.5	0
bin	-0.43333333333333	0
bin	-0.36666666666667	0
bin	-0.3	0
bin	-0.23333333333333	0
bin	-0.16666666666667	0
bin	-0.1	0
bin	-0.033333333333333	152973
bin	0.033333333333333	2954
bin	0.1	1478
bin	0.16666666666667	950
bin	0.23333333333333	731
bin	0.3	599
bin	0.36666666666667	570
bin	0.43333333333333	497
bin	0.5	426
bin	0.56666666666667	436
bin	0.63333333333333	491
bin	0.7	472
bin	0.76666666666667	463
bin	0.83333333333333	570
bin	0.9	905
bin	0.96666666666667	40497
bin	1.0333333333333	0
bin	1.1	0
bin	1.1666666666667	0
bin	1.2333333333333	0
bin	1.3	0
bin	1.3666666666667	0
bin	1.4333333333333	0
bin	1.5	0
statistic scenarioPRJP1.node[0].wlan[0].radio 	minSNIR:histogram
field count 205012
field mean 1454.6712682161
field stddev 18398.254214653
field sum 298225066.03952
field sqrsum 69829173308502
field min 0.00013605674884219
field max 1416493.1506248
attr source  minSNIR
attr title  "Min SNIR, histogram"
bin	-INF	0
bin	-94.775215390862	0
bin	-82.126698497968	0
bin	-69.478181605073	0
bin	-56.829664712179	0
bin	-44.181147819284	0
bin	-31.53263092639	0
bin	-18.884114033495	0
bin	-6.235597140601	84389
bin	6.4129197522934	38337
bin	19.061436645188	12527
bin	31.709953538082	6397
bin	44.358470430977	4108
bin	57.006987323871	2908
bin	69.655504216766	2245
bin	82.30402110966	1703
bin	94.952538002554	1443
bin	107.60105489545	1275
bin	120.24957178834	2661
bin	132.89808868124	3417
bin	145.54660557413	2753
bin	158.19512246703	2300
bin	170.84363935992	2005
bin	183.49215625282	1693
bin	196.14067314571	1480
bin	208.7891900386	1334
bin	221.4377069315	1216
bin	234.08622382439	1042
bin	246.73474071729	911
bin	259.38325761018	872
bin	272.03177450308	789
bin	284.68029139597	27207
scalar scenarioPRJP1.node[0].lo0.lo 	droppedPkBitError:count 	0
attr interpolationmode  none
attr source  dropPkBitError
attr title  "packets dropped/bit error, count"
scalar scenarioPRJP1.node[0].lo0.lo 	droppedPkBitError:sum(packetBytes) 	0
attr interpolationmode  none
attr source  dropPkBitError
attr title  "packets dropped/bit error, sum(packetBytes)"
scalar scenarioPRJP1.node[0].lo0.lo 	rcvdPkFromHL:count 	0
attr interpolationmode  none
attr source  packetReceivedFromUpper
attr title  "packets received from higher layer, count"
scalar scenarioPRJP1.node[0].lo0.lo 	rcvdPkFromHL:sum(packetBytes) 	0
attr interpolationmode  none
attr source  packetReceivedFromUpper
attr title  "packets received from higher layer, sum(packetBytes)"
scalar scenarioPRJP1.node[0].lo0.lo 	passedUpPk:count 	0
attr interpolationmode  none
attr source  packetSentToUpper
attr title  "packets passed to higher layer, count"
scalar scenarioPRJP1.node[0].lo0.lo 	passedUpPk:sum(packetBytes) 	0
attr interpolationmode  none
attr source  packetSentToUpper
attr title  "packets passed to higher layer, sum(packetBytes)"
scalar scenarioPRJP1.node[20].app 	"Total sent" 	2615
scalar scenarioPRJP1.node[20].app 	"Total received" 	137
scalar scenarioPRJP1.node[20].app 	"Total deleted" 	37
scalar scenarioPRJP1.node[20].app 	dropPk:count 	37
attr interpolationmode  none
attr source  dropPk
attr title  "packets dropped, count"
scalar scenarioPRJP1.node[20].app 	dropPk:sum(packetBytes) 	18944
attr interpolationmode  none
attr source  dropPk
attr title  "packets dropped, sum(packetBytes)"
scalar scenarioPRJP1.node[20].app 	outOfOrderPk:count 	2
attr interpolationmode  none
attr source  outOfOrderPk
attr title  "packets received out of order, count"
scalar scenarioPRJP1.node[20].app 	outOfOrderPk:sum(packetBytes) 	1024
attr interpolationmode  none
attr source  outOfOrderPk
attr title  "packets received out of order, sum(packetBytes)"
scalar scenarioPRJP1.node[20].app 	rcvdPk:count 	137
attr interpolationmode  none
attr source  rcvdPk
attr title  "packets received, count"
scalar scenarioPRJP1.node[20].app 	rcvdPk:sum(packetBytes) 	70144
attr interpolationmode  none
attr source  rcvdPk
attr title  "packets received, sum(packetBytes)"
statistic scenarioPRJP1.node[20].app 	endToEndDelay:histogram
field count 137
field mean 0.51064008473243
field stddev 2.1163101851478
field sum 69.957691608343
field sqrsum 644.83575833799
field min 0.000945023875
field max 17.231765065035
attr interpolationmode  none
attr source  messageAge(rcvdPk)
attr title  "delay, histogram"
attr unit  s
bin	-INF	0
bin	-7.2178255514175	0
bin	-6.2553228080452	0
bin	-5.2928200646728	0
bin	-4.3303173213005	0
bin	-3.3678145779282	0
bin	-2.4053118345558	0
bin	-1.4428090911835	0
bin	-0.48030634781117	121
bin	0.48219639556117	4
bin	1.4446991389335	5
bin	2.4072018823058	2
bin	3.3697046256782	0
bin	4.3322073690505	1
bin	5.2947101124228	1
bin	6.2572128557952	0
bin	7.2197155991675	1
bin	8.1822183425398	0
bin	9.1447210859122	0
bin	10.107223829285	0
bin	11.069726572657	0
bin	12.032229316029	0
bin	12.994732059401	0
bin	13.957234802774	1
bin	14.919737546146	0
bin	15.882240289518	0
bin	16.844743032891	1
bin	17.807245776263	0
bin	18.769748519635	0
bin	19.732251263008	0
bin	20.69475400638	0
bin	21.657256749752	0
scalar scenarioPRJP1.node[20].app 	sentPk:count 	2615
attr interpolationmode  none
attr source  sentPk
attr title  "packets sent, count"
scalar scenarioPRJP1.node[20].app 	sentPk:sum(packetBytes) 	1338880
attr interpolationmode  none
attr source  sentPk
attr title  "packets sent, sum(packetBytes)"
scalar scenarioPRJP1.node[20].udp 	droppedPkBadChecksum:count 	0
attr interpolationmode  none
attr title  "packets dropped (checksum error), count"
scalar scenarioPRJP1.node[20].udp 	droppedPkWrongPort:count 	0
attr interpolationmode  none
attr title  "packets dropped (wrong port), count"
scalar scenarioPRJP1.node[20].udp 	passedUpPk:count 	176
attr interpolationmode  none
attr title  "packets passed up, count"
scalar scenarioPRJP1.node[20].udp 	rcvdPk:count 	176
attr interpolationmode  none
attr source  rcvdPk
attr title  "packets received, count"
scalar scenarioPRJP1.node[20].udp 	rcvdPk:sum(packetBytes) 	91520
attr interpolationmode  none
attr source  rcvdPk
attr title  "packets received, sum(packetBytes)"
scalar scenarioPRJP1.node[20].udp 	sentPk:count 	2615
attr interpolationmode  none
attr source  sentPk
attr title  "packets sent, count"
scalar scenarioPRJP1.node[20].udp 	sentPk:sum(packetBytes) 	1359800
attr interpolationmode  none
attr source  sentPk
attr title  "packets sent, sum(packetBytes)"
scalar scenarioPRJP1.node[20].networkLayer.arp 	failedARPResolution:count 	283
attr title  "ARP failed resolutions, count"
scalar scenarioPRJP1.node[20].networkLayer.arp 	completedARPResolution:count 	4748
attr title  "ARP completed resolutions, count"
scalar scenarioPRJP1.node[20].networkLayer.arp 	initiatedARPResolution:count 	384
attr title  "ARP initiated resolutions, count"
scalar scenarioPRJP1.node[20].networkLayer.arp 	sentReply:count 	66
attr title  "ARP replies sent, count"
scalar scenarioPRJP1.node[20].networkLayer.arp 	sentReq:count 	1014
attr title  "ARP request sent, count"
scalar scenarioPRJP1.node[20].mobility 	startTime 	2.5
scalar scenarioPRJP1.node[20].mobility 	totalTime 	947.4
scalar scenarioPRJP1.node[20].mobility 	stopTime 	950
scalar scenarioPRJP1.node[20].mobility 	minSpeed 	2.4755291000969e-13
scalar scenarioPRJP1.node[20].mobility 	maxSpeed 	16.834281798148
scalar scenarioPRJP1.node[20].mobility 	totalDistance 	8405.3466392942
scalar scenarioPRJP1.node[20].mobility 	totalCO2Emission 	2363.3730772875
scalar scenarioPRJP1.node[20].wlan[0].mgmt 	dataQueueLen:max 	24
attr interpolationmode  sample-hold
attr title  "data queue length, max"
scalar scenarioPRJP1.node[20].wlan[0].mgmt 	dataQueueLen:timeavg 	0
attr interpolationmode  sample-hold
attr title  "data queue length, timeavg"
scalar scenarioPRJP1.node[20].wlan[0].mgmt 	dropPkByQueue:count 	0
attr interpolationmode  none
attr source  dropPkByQueue
attr title  "packets dropped by queue, count"
scalar scenarioPRJP1.node[20].wlan[0].mgmt 	dropPkByQueue:sum(packetBytes) 	0
attr interpolationmode  none
attr source  dropPkByQueue
attr title  "packets dropped by queue, sum(packetBytes)"
scalar scenarioPRJP1.node[20].wlan[0].mac 	"number of received packets" 	4914
scalar scenarioPRJP1.node[20].wlan[0].mac 	"number of collisions" 	71457
scalar scenarioPRJP1.node[20].wlan[0].mac 	"number of internal collisions" 	1
scalar scenarioPRJP1.node[20].wlan[0].mac 	"number of retry for AC 0" 	14021
scalar scenarioPRJP1.node[20].wlan[0].mac 	"number of retry for AC 1" 	12
scalar scenarioPRJP1.node[20].wlan[0].mac 	"number of retry for AC 2" 	0
scalar scenarioPRJP1.node[20].wlan[0].mac 	"number of retry for AC 3" 	0
scalar scenarioPRJP1.node[20].wlan[0].mac 	"sent and received bits" 	20186656
scalar scenarioPRJP1.node[20].wlan[0].mac 	"sent packet within AC 0" 	2841
scalar scenarioPRJP1.node[20].wlan[0].mac 	"sent packet within AC 1" 	1
scalar scenarioPRJP1.node[20].wlan[0].mac 	"sent packet within AC 2" 	0
scalar scenarioPRJP1.node[20].wlan[0].mac 	"sent packet within AC 3" 	0
scalar scenarioPRJP1.node[20].wlan[0].mac 	"sent in TXOP " 	0
scalar scenarioPRJP1.node[20].wlan[0].mac 	"sentWithoutRetry AC 0" 	2285
scalar scenarioPRJP1.node[20].wlan[0].mac 	"sentWithoutRetry AC 1" 	1
scalar scenarioPRJP1.node[20].wlan[0].mac 	"sentWithoutRetry AC 2" 	0
scalar scenarioPRJP1.node[20].wlan[0].mac 	"sentWithoutRetry AC 3" 	0
scalar scenarioPRJP1.node[20].wlan[0].mac 	"numGivenUp AC 0" 	2169
scalar scenarioPRJP1.node[20].wlan[0].mac 	"numGivenUp AC 1" 	2
scalar scenarioPRJP1.node[20].wlan[0].mac 	"numGivenUp AC 2" 	0
scalar scenarioPRJP1.node[20].wlan[0].mac 	"numGivenUp AC 3" 	0
scalar scenarioPRJP1.node[20].wlan[0].mac 	"numDropped AC 0" 	0
scalar scenarioPRJP1.node[20].wlan[0].mac 	"numDropped AC 1" 	0
scalar scenarioPRJP1.node[20].wlan[0].mac 	"numDropped AC 2" 	0
scalar scenarioPRJP1.node[20].wlan[0].mac 	"numDropped AC 3" 	0
scalar scenarioPRJP1.node[20].wlan[0].mac 	rcvdPkFromLL:count 	290180
attr interpolationmode  none
attr source  packetReceivedFromLower
attr title  "packets received from lower layer, count"
scalar scenarioPRJP1.node[20].wlan[0].mac 	rcvdPkFromLL:sum(packetBytes) 	52224250
attr interpolationmode  none
attr source  packetReceivedFromLower
attr title  "packets received from lower layer, sum(packetBytes)"
scalar scenarioPRJP1.node[20].wlan[0].mac 	sentDownPk:count 	46488
attr interpolationmode  none
attr source  packetSentToLower
attr title  "packets sent to lower layer, count"
scalar scenarioPRJP1.node[20].wlan[0].mac 	sentDownPk:sum(packetBytes) 	8560436
attr interpolationmode  none
attr source  packetSentToLower
attr title  "packets sent to lower layer, sum(packetBytes)"
scalar scenarioPRJP1.node[20].wlan[0].mac 	rcvdPkFromHL:count 	27542
attr interpolationmode  none
attr source  packetReceivedFromUpper
attr title  "packets received from higher layer, count"
scalar scenarioPRJP1.node[20].wlan[0].mac 	rcvdPkFromHL:sum(packetBytes) 	3335420
attr interpolationmode  none
attr source  packetReceivedFromUpper
attr title  "packets received from higher layer, sum(packetBytes)"
scalar scenarioPRJP1.node[20].wlan[0].mac 	passedUpPk:count 	120275
attr interpolationmode  none
attr source  packetSentToUpper
attr title  "packets passed to higher layer, count"
scalar scenarioPRJP1.node[20].wlan[0].mac 	passedUpPk:sum(packetBytes) 	11039292
attr interpolationmode  none
attr source  packetSentToUpper
attr title  "packets passed to higher layer, sum(packetBytes)"
statistic scenarioPRJP1.node[20].wlan[0].radio 	radioChannel:histogram
field count 1
field mean 3
field stddev -nan
field sum 3
field sqrsum 9
field min 3
field max 3
attr interpolationmode  sample-hold
attr source  radioChannelChanged
attr title  "Radio channel, histogram"
bin	-INF	0
bin	2	0
bin	3	1
bin	4	0
scalar scenarioPRJP1.node[20].wlan[0].radio 	transmissionState:count 	185950
attr interpolationmode  sample-hold
attr source  transmissionStateChanged
attr title  "Radio transmission state, count"
scalar scenarioPRJP1.node[20].wlan[0].radio 	receptionState:count 	693452
attr interpolationmode  sample-hold
attr source  receptionStateChanged
attr title  "Radio reception state, count"
scalar scenarioPRJP1.node[20].wlan[0].radio 	radioMode:count 	92977
attr interpolationmode  sample-hold
attr source  radioModeChanged
attr title  "Radio mode, count"
statistic scenarioPRJP1.node[20].wlan[0].radio 	symbolErrorRate:histogram
field count 0
field mean -nan
field stddev -nan
field sum 0
field sqrsum 0
field min -nan
field max -nan
attr source  symbolErrorRate
attr title  "Symbol error rate, histogram"
bin	-INF	0
bin	-0.5	0
bin	-0.46666666666667	0
bin	-0.43333333333333	0
bin	-0.4	0
bin	-0.36666666666667	0
bin	-0.33333333333333	0
bin	-0.3	0
bin	-0.26666666666667	0
bin	-0.23333333333333	0
bin	-0.2	0
bin	-0.16666666666667	0
bin	-0.13333333333333	0
bin	-0.1	0
bin	-0.066666666666667	0
bin	-0.033333333333333	0
bin	0	0
bin	0.033333333333333	0
bin	0.066666666666667	0
bin	0.1	0
bin	0.13333333333333	0
bin	0.16666666666667	0
bin	0.2	0
bin	0.23333333333333	0
bin	0.26666666666667	0
bin	0.3	0
bin	0.33333333333333	0
bin	0.36666666666667	0
bin	0.4	0
bin	0.43333333333333	0
bin	0.46666666666667	0
bin	0.5	0
statistic scenarioPRJP1.node[20].wlan[0].radio 	bitErrorRate:histogram
field count 0
field mean -nan
field stddev -nan
field sum 0
field sqrsum 0
field min -nan
field max -nan
attr source  bitErrorRate
attr title  "Bit error rate, histogram"
bin	-INF	0
bin	-0.5	0
bin	-0.46666666666667	0
bin	-0.43333333333333	0
bin	-0.4	0
bin	-0.36666666666667	0
bin	-0.33333333333333	0
bin	-0.3	0
bin	-0.26666666666667	0
bin	-0.23333333333333	0
bin	-0.2	0
bin	-0.16666666666667	0
bin	-0.13333333333333	0
bin	-0.1	0
bin	-0.066666666666667	0
bin	-0.033333333333333	0
bin	0	0
bin	0.033333333333333	0
bin	0.066666666666667	0
bin	0.1	0
bin	0.13333333333333	0
bin	0.16666666666667	0
bin	0.2	0
bin	0.23333333333333	0
bin	0.26666666666667	0
bin	0.3	0
bin	0.33333333333333	0
bin	0.36666666666667	0
bin	0.4	0
bin	0.43333333333333	0
bin	0.46666666666667	0
bin	0.5	0
statistic scenarioPRJP1.node[20].wlan[0].radio 	packetErrorRate:histogram
field count 290180
field mean 0.21471375431519
field stddev 0.40136359029889
field sum 62305.637227183
field sqrsum 60123.605052116
field min 0
field max 1
attr source  packetErrorRate
attr title  "Packet error rate, histogram"
bin	-INF	0
bin	-0.5	0
bin	-0.43333333333333	0
bin	-0.36666666666667	0
bin	-0.3	0
bin	-0.23333333333333	0
bin	-0.16666666666667	0
bin	-0.1	0
bin	-0.033333333333333	218808
bin	0.033333333333333	3708
bin	0.1	1830
bin	0.16666666666667	1237
bin	0.23333333333333	962
bin	0.3	770
bin	0.36666666666667	688
bin	0.43333333333333	636
bin	0.5	581
bin	0.56666666666667	528
bin	0.63333333333333	540
bin	0.7	559
bin	0.76666666666667	625
bin	0.83333333333333	774
bin	0.9	1163
bin	0.96666666666667	56771
bin	1.0333333333333	0
bin	1.1	0
bin	1.1666666666667	0
bin	1.2333333333333	0
bin	1.3	0
bin	1.3666666666667	0
bin	1.4333333333333	0
bin	1.5	0
statistic scenarioPRJP1.node[20].wlan[0].radio 	minSNIR:histogram
field count 290180
field mean 1729.9729505137
field stddev 19685.201165686
field sum 502003550.78006
field sqrsum 1.1331488837358e+14
field min 9.5337602594649e-05
field max 1324943.3174078
attr source  minSNIR
attr title  "Min SNIR, histogram"
bin	-INF	0
bin	-129.96099700295	0
bin	-112.6284238631	0
bin	-95.295850723245	0
bin	-77.963277583395	0
bin	-60.630704443545	0
bin	-43.298131303695	0
bin	-25.965558163845	0
bin	-8.632985023995	126252
bin	8.699588115855	43637
bin	26.032161255705	15086
bin	43.364734395555	8594
bin	60.697307535405	5780
bin	78.029880675255	4210
bin	95.362453815105	3289
bin	112.69502695496	3882
bin	130.02760009481	6751
bin	147.36017323466	5361
bin	164.69274637451	4333
bin	182.02531951436	3629
bin	199.35789265421	3023
bin	216.69046579406	2616
bin	234.02303893391	2195
bin	251.35561207376	1970
bin	268.68818521361	1752
bin	286.02075835346	1597
bin	303.35333149331	1474
bin	320.68590463316	1295
bin	338.01847777301	1151
bin	355.35105091286	1092
bin	372.68362405271	991
bin	390.01619719256	40220
scalar scenarioPRJP1.node[20].lo0.lo 	droppedPkBitError:count 	0
attr interpolationmode  none
attr source  dropPkBitError
attr title  "packets dropped/bit error, count"
scalar scenarioPRJP1.node[20].lo0.lo 	droppedPkBitError:sum(packetBytes) 	0
attr interpolationmode  none
attr source  dropPkBitError
attr title  "packets dropped/bit error, sum(packetBytes)"
scalar scenarioPRJP1.node[20].lo0.lo 	rcvdPkFromHL:count 	1
attr interpolationmode  none
attr source  packetReceivedFromUpper
attr title  "packets received from higher layer, count"
scalar scenarioPRJP1.node[20].lo0.lo 	rcvdPkFromHL:sum(packetBytes) 	56
attr interpolationmode  none
attr source  packetReceivedFromUpper
attr title  "packets received from higher layer, sum(packetBytes)"
scalar scenarioPRJP1.node[20].lo0.lo 	passedUpPk:count 	1
attr interpolationmode  none
attr source  packetSentToUpper
attr title  "packets passed to higher layer, count"
scalar scenarioPRJP1.node[20].lo0.lo 	passedUpPk:sum(packetBytes) 	56
attr interpolationmode  none
attr source  packetSentToUpper
attr title  "packets passed to higher layer, sum(packetBytes)"
scalar scenarioPRJP1.node[42].app 	"Total sent" 	2607
scalar scenarioPRJP1.node[42].app 	"Total received" 	143
scalar scenarioPRJP1.node[42].app 	"Total deleted" 	29
scalar scenarioPRJP1.node[42].app 	dropPk:count 	29
attr interpolationmode  none
attr source  dropPk
attr title  "packets dropped, count"
scalar scenarioPRJP1.node[42].app 	dropPk:sum(packetBytes) 	14848
attr interpolationmode  none
attr source  dropPk
attr title  "packets dropped, sum(packetBytes)"
scalar scenarioPRJP1.node[42].app 	outOfOrderPk:count 	7
attr interpolationmode  none
attr source  outOfOrderPk
attr title  "packets received out of order, count"
scalar scenarioPRJP1.node[42].app 	outOfOrderPk:sum(packetBytes) 	3584
attr interpolationmode  none
attr source  outOfOrderPk
attr title  "packets received out of order, sum(packetBytes)"
scalar scenarioPRJP1.node[42].app 	rcvdPk:count 	143
attr interpolationmode  none
attr source  rcvdPk
attr title  "packets received, count"
scalar scenarioPRJP1.node[42].app 	rcvdPk:sum(packetBytes) 	73216
attr interpolationmode  none
attr source  rcvdPk
attr title  "packets received, sum(packetBytes)"
statistic scenarioPRJP1.node[42].app 	endToEndDelay:histogram
field count 143
field mean 1.0004577335698
field stddev 3.0624248452044
field sum 143.06545590048
field sqrsum 1474.8702641809
field min 0.000945042119
field max 19.272413133379
attr interpolationmode  none
attr source  messageAge(rcvdPk)
attr title  "delay, histogram"
attr unit  s
bin	-INF	0
bin	-9.634750032662	0
bin	-8.3499872252824	0
bin	-7.0652244179028	0
bin	-5.7804616105232	0
bin	-4.4956988031436	0
bin	-3.210935995764	0
bin	-1.9261731883844	0
bin	-0.6414103810048	114
bin	0.6433524263748	12
bin	1.9281152337544	6
bin	3.212878041134	4
bin	4.4976408485136	1
bin	5.7824036558932	0
bin	7.0671664632728	0
bin	8.3519292706524	0
bin	9.636692078032	1
bin	10.921454885412	0
bin	12.206217692791	3
bin	13.490980500171	0
bin	14.77574330755	0
bin	16.06050611493	0
bin	17.34526892231	0
bin	18.630031729689	2
bin	19.914794537069	0
bin	21.199557344448	0
bin	22.484320151828	0
bin	23.769082959208	0
bin	25.053845766587	0
bin	26.338608573967	0
bin	27.623371381346	0
bin	28.908134188726	0
scalar scenarioPRJP1.node[42].app 	sentPk:count 	2607
attr interpolationmode  none
attr source  sentPk
attr title  "packets sent, count"
scalar scenarioPRJP1.node[42].app 	sentPk:sum(packetBytes) 	1334784
attr interpolationmode  none
attr source  sentPk
attr title  "packets sent, sum(packetBytes)"
scalar scenarioPRJP1.node[42].udp 	droppedPkBadChecksum:count 	0
attr interpolationmode  none
attr title  "packets dropped (checksum error), count"
scalar scenarioPRJP1.node[42].udp 	droppedPkWrongPort:count 	0
attr interpolationmode  none
attr title  "packets dropped (wrong port), count"
scalar scenarioPRJP1.node[42].udp 	passedUpPk:count 	179
attr interpolationmode  none
attr title  "packets passed up, count"
scalar scenarioPRJP1.node[42].udp 	rcvdPk:count 	179
attr interpolationmode  none
attr source  rcvdPk
attr title  "packets received, count"
scalar scenarioPRJP1.node[42].udp 	rcvdPk:sum(packetBytes) 	93080
attr interpolationmode  none
attr source  rcvdPk
attr title  "packets received, sum(packetBytes)"
scalar scenarioPRJP1.node[42].udp 	sentPk:count 	2607
attr interpolationmode  none
attr source  sentPk
attr title  "packets sent, count"
scalar scenarioPRJP1.node[42].udp 	sentPk:sum(packetBytes) 	1355640
attr interpolationmode  none
attr source  sentPk
attr title  "packets sent, sum(packetBytes)"
scalar scenarioPRJP1.node[42].networkLayer.arp 	failedARPResolution:count 	276
attr title  "ARP failed resolutions, count"
scalar scenarioPRJP1.node[42].networkLayer.arp 	completedARPResolution:count 	4977
attr title  "ARP completed resolutions, count"
scalar scenarioPRJP1.node[42].networkLayer.arp 	initiatedARPResolution:count 	370
attr title  "ARP initiated resolutions, count"
scalar scenarioPRJP1.node[42].networkLayer.arp 	sentReply:count 	55
attr title  "ARP replies sent, count"
scalar scenarioPRJP1.node[42].networkLayer.arp 	sentReq:count 	999
attr title  "ARP request sent, count"
scalar scenarioPRJP1.node[42].mobility 	startTime 	4.9
scalar scenarioPRJP1.node[42].mobility 	totalTime 	945
scalar scenarioPRJP1.node[42].mobility 	stopTime 	950
scalar scenarioPRJP1.node[42].mobility 	minSpeed 	2.4757991351278e-13
scalar scenarioPRJP1.node[42].mobility 	maxSpeed 	15.78447838261
scalar scenarioPRJP1.node[42].mobility 	totalDistance 	8979.322550702
scalar scenarioPRJP1.node[42].mobility 	totalCO2Emission 	2276.2426015197
scalar scenarioPRJP1.node[42].wlan[0].mgmt 	dataQueueLen:max 	30
attr interpolationmode  sample-hold
attr title  "data queue length, max"
scalar scenarioPRJP1.node[42].wlan[0].mgmt 	dataQueueLen:timeavg 	0
attr interpolationmode  sample-hold
attr title  "data queue length, timeavg"
scalar scenarioPRJP1.node[42].wlan[0].mgmt 	dropPkByQueue:count 	0
attr interpolationmode  none
attr source  dropPkByQueue
attr title  "packets dropped by queue, count"
scalar scenarioPRJP1.node[42].wlan[0].mgmt 	dropPkByQueue:sum(packetBytes) 	0
attr interpolationmode  none
attr source  dropPkByQueue
attr title  "packets dropped by queue, sum(packetBytes)"
scalar scenarioPRJP1.node[42].wlan[0].mac 	"number of received packets" 	2853
scalar scenarioPRJP1.node[42].wlan[0].mac 	"number of collisions" 	69834
scalar scenarioPRJP1.node[42].wlan[0].mac 	"number of internal collisions" 	0
scalar scenarioPRJP1.node[42].wlan[0].mac 	"number of retry for AC 0" 	12942
scalar scenarioPRJP1.node[42].wlan[0].mac 	"number of retry for AC 1" 	0
scalar scenarioPRJP1.node[42].wlan[0].mac 	"number of retry for AC 2" 	0
scalar scenarioPRJP1.node[42].wlan[0].mac 	"number of retry for AC 3" 	0
scalar scenarioPRJP1.node[42].wlan[0].mac 	"sent and received bits" 	17452480
scalar scenarioPRJP1.node[42].wlan[0].mac 	"sent packet within AC 0" 	889
scalar scenarioPRJP1.node[42].wlan[0].mac 	"sent packet within AC 1" 	0
scalar scenarioPRJP1.node[42].wlan[0].mac 	"sent packet within AC 2" 	0
scalar scenarioPRJP1.node[42].wlan[0].mac 	"sent packet within AC 3" 	0
scalar scenarioPRJP1.node[42].wlan[0].mac 	"sent in TXOP " 	0
scalar scenarioPRJP1.node[42].wlan[0].mac 	"sentWithoutRetry AC 0" 	697
scalar scenarioPRJP1.node[42].wlan[0].mac 	"sentWithoutRetry AC 1" 	0
scalar scenarioPRJP1.node[42].wlan[0].mac 	"sentWithoutRetry AC 2" 	0
scalar scenarioPRJP1.node[42].wlan[0].mac 	"sentWithoutRetry AC 3" 	0
scalar scenarioPRJP1.node[42].wlan[0].mac 	"numGivenUp AC 0" 	2086
scalar scenarioPRJP1.node[42].wlan[0].mac 	"numGivenUp AC 1" 	0
scalar scenarioPRJP1.node[42].wlan[0].mac 	"numGivenUp AC 2" 	0
scalar scenarioPRJP1.node[42].wlan[0].mac 	"numGivenUp AC 3" 	0
scalar scenarioPRJP1.node[42].wlan[0].mac 	"numDropped AC 0" 	0
scalar scenarioPRJP1.node[42].wlan[0].mac 	"numDropped AC 1" 	0
scalar scenarioPRJP1.node[42].wlan[0].mac 	"numDropped AC 2" 	0
scalar scenarioPRJP1.node[42].wlan[0].mac 	"numDropped AC 3" 	0
scalar scenarioPRJP1.node[42].wlan[0].mac 	rcvdPkFromLL:count 	276449
attr interpolationmode  none
attr source  packetReceivedFromLower
attr title  "packets received from lower layer, count"
scalar scenarioPRJP1.node[42].wlan[0].mac 	rcvdPkFromLL:sum(packetBytes) 	50795942
attr interpolationmode  none
attr source  packetReceivedFromLower
attr title  "packets received from lower layer, sum(packetBytes)"
scalar scenarioPRJP1.node[42].wlan[0].mac 	sentDownPk:count 	40049
attr interpolationmode  none
attr source  packetSentToLower
attr title  "packets sent to lower layer, count"
scalar scenarioPRJP1.node[42].wlan[0].mac 	sentDownPk:sum(packetBytes) 	7975530
attr interpolationmode  none
attr source  packetSentToLower
attr title  "packets sent to lower layer, sum(packetBytes)"
scalar scenarioPRJP1.node[42].wlan[0].mac 	rcvdPkFromHL:count 	24254
attr interpolationmode  none
attr source  packetReceivedFromUpper
attr title  "packets received from higher layer, count"
scalar scenarioPRJP1.node[42].wlan[0].mac 	rcvdPkFromHL:sum(packetBytes) 	2972812
attr interpolationmode  none
attr source  packetReceivedFromUpper
attr title  "packets received from higher layer, sum(packetBytes)"
scalar scenarioPRJP1.node[42].wlan[0].mac 	passedUpPk:count 	115554
attr interpolationmode  none
attr source  packetSentToUpper
attr title  "packets passed to higher layer, count"
scalar scenarioPRJP1.node[42].wlan[0].mac 	passedUpPk:sum(packetBytes) 	10597180
attr interpolationmode  none
attr source  packetSentToUpper
attr title  "packets passed to higher layer, sum(packetBytes)"
statistic scenarioPRJP1.node[42].wlan[0].radio 	radioChannel:histogram
field count 1
field mean 3
field stddev -nan
field sum 3
field sqrsum 9
field min 3
field max 3
attr interpolationmode  sample-hold
attr source  radioChannelChanged
attr title  "Radio channel, histogram"
bin	-INF	0
bin	2	0
bin	3	1
bin	4	0
scalar scenarioPRJP1.node[42].wlan[0].radio 	transmissionState:count 	160196
attr interpolationmode  sample-hold
attr source  transmissionStateChanged
attr title  "Radio transmission state, count"
scalar scenarioPRJP1.node[42].wlan[0].radio 	receptionState:count 	651672
attr interpolationmode  sample-hold
attr source  receptionStateChanged
attr title  "Radio reception state, count"
scalar scenarioPRJP1.node[42].wlan[0].radio 	radioMode:count 	80100
attr interpolationmode  sample-hold
attr source  radioModeChanged
attr title  "Radio mode, count"
statistic scenarioPRJP1.node[42].wlan[0].radio 	symbolErrorRate:histogram
field count 0
field mean -nan
field stddev -nan
field sum 0
field sqrsum 0
field min -nan
field max -nan
attr source  symbolErrorRate
attr title  "Symbol error rate, histogram"
bin	-INF	0
bin	-0.5	0
bin	-0.46666666666667	0
bin	-0.43333333333333	0
bin	-0.4	0
bin	-0.36666666666667	0
bin	-0.33333333333333	0
bin	-0.3	0
bin	-0.26666666666667	0
bin	-0.23333333333333	0
bin	-0.2	0
bin	-0.16666666666667	0
bin	-0.13333333333333	0
bin	-0.1	0
bin	-0.066666666666667	0
bin	-0.033333333333333	0
bin	0	0
bin	0.033333333333333	0
bin	0.066666666666667	0
bin	0.1	0
bin	0.13333333333333	0
bin	0.16666666666667	0
bin	0.2	0
bin	0.23333333333333	0
bin	0.26666666666667	0
bin	0.3	0
bin	0.33333333333333	0
bin	0.36666666666667	0
bin	0.4	0
bin	0.43333333333333	0
bin	0.46666666666667	0
bin	0.5	0
statistic scenarioPRJP1.node[42].wlan[0].radio 	bitErrorRate:histogram
field count 0
field mean -nan
field stddev -nan
field sum 0
field sqrsum 0
field min -nan
field max -nan
attr source  bitErrorRate
attr title  "Bit error rate, histogram"
bin	-INF	0
bin	-0.5	0
bin	-0.46666666666667	0
bin	-0.43333333333333	0
bin	-0.4	0
bin	-0.36666666666667	0
bin	-0.33333333333333	0
bin	-0.3	0
bin	-0.26666666666667	0
bin	-0.23333333333333	0
bin	-0.2	0
bin	-0.16666666666667	0
bin	-0.13333333333333	0
bin	-0.1	0
bin	-0.066666666666667	0
bin	-0.033333333333333	0
bin	0	0
bin	0.033333333333333	0
bin	0.066666666666667	0
bin	0.1	0
bin	0.13333333333333	0
bin	0.16666666666667	0
bin	0.2	0
bin	0.23333333333333	0
bin	0.26666666666667	0
bin	0.3	0
bin	0.33333333333333	0
bin	0.36666666666667	0
bin	0.4	0
bin	0.43333333333333	0
bin	0.46666666666667	0
bin	0.5	0
statistic scenarioPRJP1.node[42].wlan[0].radio 	packetErrorRate:histogram
field count 276449
field mean 0.22003238952653
field stddev 0.40474602450524
field sum 60827.73405222
field sqrsum 58671.601780636
field min 0
field max 1
attr source  packetErrorRate
attr title  "Packet error rate, histogram"
bin	-INF	0
bin	-0.5	0
bin	-0.43333333333333	0
bin	-0.36666666666667	0
bin	-0.3	0
bin	-0.23333333333333	0
bin	-0.16666666666667	0
bin	-0.1	0
bin	-0.033333333333333	206619
bin	0.033333333333333	3724
bin	0.1	1780
bin	0.16666666666667	1179
bin	0.23333333333333	980
bin	0.3	809
bin	0.36666666666667	656
bin	0.43333333333333	627
bin	0.5	609
bin	0.56666666666667	525
bin	0.63333333333333	535
bin	0.7	552
bin	0.76666666666667	616
bin	0.83333333333333	689
bin	0.9	1143
bin	0.96666666666667	55406
bin	1.0333333333333	0
bin	1.1	0
bin	1.1666666666667	0
bin	1.2333333333333	0
bin	1.3	0
bin	1.3666666666667	0
bin	1.4333333333333	0
bin	1.5	0
statistic scenarioPRJP1.node[42].wlan[0].radio 	minSNIR:histogram
field count 276449
field mean 1345.2624819589
field stddev 16493.370248845
field sum 371896467.87507
field sqrsum 75702796728534
field min 0.00014051924573209
field max 1846861.1392094
attr source  minSNIR
attr title  "Min SNIR, histogram"
bin	-INF	0
bin	-971.15462636656	0
bin	-841.66241901662	0
bin	-712.17021166669	0
bin	-582.67800431676	0
bin	-453.18579696683	0
bin	-323.6935896169	0
bin	-194.20138226697	0
bin	-64.709174917038	187699
bin	64.783032432893	32783
bin	194.27523978282	15367
bin	323.76744713275	7167
bin	453.25965448269	4470
bin	582.75186183262	2997
bin	712.24406918255	2325
bin	841.73627653248	1759
bin	971.22848388241	1469
bin	1100.7206912323	1198
bin	1230.2128985823	1018
bin	1359.7051059322	890
bin	1489.1973132821	775
bin	1618.6895206321	677
bin	1748.181727982	615
bin	1877.6739353319	610
bin	2007.1661426819	546
bin	2136.6583500318	484
bin	2266.1505573817	397
bin	2395.6427647317	406
bin	2525.1349720816	350
bin	2654.6271794315	362
bin	2784.1193867814	341
bin	2913.6115941314	11744
scalar scenarioPRJP1.node[42].lo0.lo 	droppedPkBitError:count 	0
attr interpolationmode  none
attr source  dropPkBitError
attr title  "packets dropped/bit error, count"
scalar scenarioPRJP1.node[42].lo0.lo 	droppedPkBitError:sum(packetBytes) 	0
attr interpolationmode  none
attr source  dropPkBitError
attr title  "packets dropped/bit error, sum(packetBytes)"
scalar scenarioPRJP1.node[42].lo0.lo 	rcvdPkFromHL:count 	0
attr interpolationmode  none
attr source  packetReceivedFromUpper
attr title  "packets received from higher layer, count"
scalar scenarioPRJP1.node[42].lo0.lo 	rcvdPkFromHL:sum(packetBytes) 	0
attr interpolationmode  none
attr source  packetReceivedFromUpper
attr title  "packets received from higher layer, sum(packetBytes)"
scalar scenarioPRJP1.node[42].lo0.lo 	passedUpPk:count 	0
attr interpolationmode  none
attr source  packetSentToUpper
attr title  "packets passed to higher layer, count"
scalar scenarioPRJP1.node[42].lo0.lo 	passedUpPk:sum(packetBytes) 	0
attr interpolationmode  none
attr source  packetSentToUpper
attr title  "packets passed to higher layer, sum(packetBytes)"
scalar scenarioPRJP1.node[60].app 	"Total sent" 	2611
scalar scenarioPRJP1.node[60].app 	"Total received" 	144
scalar scenarioPRJP1.node[60].app 	"Total deleted" 	35
scalar scenarioPRJP1.node[60].app 	dropPk:count 	35
attr interpolationmode  none
attr source  dropPk
attr title  "packets dropped, count"
scalar scenarioPRJP1.node[60].app 	dropPk:sum(packetBytes) 	17920
attr interpolationmode  none
attr source  dropPk
attr title  "packets dropped, sum(packetBytes)"
scalar scenarioPRJP1.node[60].app 	outOfOrderPk:count 	21
attr interpolationmode  none
attr source  outOfOrderPk
attr title  "packets received out of order, count"
scalar scenarioPRJP1.node[60].app 	outOfOrderPk:sum(packetBytes) 	10752
attr interpolationmode  none
attr source  outOfOrderPk
attr title  "packets received out of order, sum(packetBytes)"
scalar scenarioPRJP1.node[60].app 	rcvdPk:count 	144
attr interpolationmode  none
attr source  rcvdPk
attr title  "packets received, count"
scalar scenarioPRJP1.node[60].app 	rcvdPk:sum(packetBytes) 	73728
attr interpolationmode  none
attr source  rcvdPk
attr title  "packets received, sum(packetBytes)"
statistic scenarioPRJP1.node[60].app 	endToEndDelay:histogram
field count 144
field mean 1.0125479582142
field stddev 3.2496745851988
field sum 145.80690598284
field sqrsum 1657.7715270317
field min 0.000958142056
field max 17.851054124375
attr interpolationmode  none
attr source  messageAge(rcvdPk)
attr title  "delay, histogram"
attr unit  s
bin	-INF	0
bin	-8.9240898491035	0
bin	-7.7340834502822	0
bin	-6.544077051461	0
bin	-5.3540706526397	0
bin	-4.1640642538184	0
bin	-2.9740578549972	0
bin	-1.7840514561759	0
bin	-0.59404505735463	121
bin	0.59596134146663	8
bin	1.7859677402879	4
bin	2.9759741391092	1
bin	4.1659805379304	0
bin	5.3559869367517	2
bin	6.545993335573	0
bin	7.7359997343942	1
bin	8.9260061332155	0
bin	10.116012532037	1
bin	11.306018930858	0
bin	12.496025329679	2
bin	13.686031728501	2
bin	14.876038127322	0
bin	16.066044526143	1
bin	17.256050924964	1
bin	18.446057323786	0
bin	19.636063722607	0
bin	20.826070121428	0
bin	22.016076520249	0
bin	23.206082919071	0
bin	24.396089317892	0
bin	25.586095716713	0
bin	26.776102115534	0
scalar scenarioPRJP1.node[60].app 	sentPk:count 	2611
attr interpolationmode  none
attr source  sentPk
attr title  "packets sent, count"
scalar scenarioPRJP1.node[60].app 	sentPk:sum(packetBytes) 	1336832
attr interpolationmode  none
attr source  sentPk
attr title  "packets sent, sum(packetBytes)"
scalar scenarioPRJP1.node[60].udp 	droppedPkBadChecksum:count 	0
attr interpolationmode  none
attr title  "packets dropped (checksum error), count"
scalar scenarioPRJP1.node[60].udp 	droppedPkWrongPort:count 	0
attr interpolationmode  none
attr title  "packets dropped (wrong port), count"
scalar scenarioPRJP1.node[60].udp 	passedUpPk:count 	200
attr interpolationmode  none
attr title  "packets passed up, count"
scalar scenarioPRJP1.node[60].udp 	rcvdPk:count 	200
attr interpolationmode  none
attr source  rcvdPk
attr title  "packets received, count"
scalar scenarioPRJP1.node[60].udp 	rcvdPk:sum(packetBytes) 	104000
attr interpolationmode  none
attr source  rcvdPk
attr title  "packets received, sum(packetBytes)"
scalar scenarioPRJP1.node[60].udp 	sentPk:count 	2611
attr interpolationmode  none
attr source  sentPk
attr title  "packets sent, count"
scalar scenarioPRJP1.node[60].udp 	sentPk:sum(packetBytes) 	1357720
attr interpolationmode  none
attr source  sentPk
attr title  "packets sent, sum(packetBytes)"
scalar scenarioPRJP1.node[60].networkLayer.arp 	failedARPResolution:count 	310
attr title  "ARP failed resolutions, count"
scalar scenarioPRJP1.node[60].networkLayer.arp 	completedARPResolution:count 	4586
attr title  "ARP completed resolutions, count"
scalar scenarioPRJP1.node[60].networkLayer.arp 	initiatedARPResolution:count 	399
attr title  "ARP initiated resolutions, count"
scalar scenarioPRJP1.node[60].networkLayer.arp 	sentReply:count 	65
attr title  "ARP replies sent, count"
scalar scenarioPRJP1.node[60].networkLayer.arp 	sentReq:count 	1089
attr title  "ARP request sent, count"
scalar scenarioPRJP1.node[60].mobility 	startTime 	7.3
scalar scenarioPRJP1.node[60].mobility 	totalTime 	942.6
scalar scenarioPRJP1.node[60].mobility 	stopTime 	950
scalar scenarioPRJP1.node[60].mobility 	minSpeed 	2.4754425539088e-13
scalar scenarioPRJP1.node[60].mobility 	maxSpeed 	19.484279562502
scalar scenarioPRJP1.node[60].mobility 	totalDistance 	9699.2217178359
scalar scenarioPRJP1.node[60].mobility 	totalCO2Emission 	2662.2511758434
scalar scenarioPRJP1.node[60].wlan[0].mgmt 	dataQueueLen:max 	24
attr interpolationmode  sample-hold
attr title  "data queue length, max"
scalar scenarioPRJP1.node[60].wlan[0].mgmt 	dataQueueLen:timeavg 	0
attr interpolationmode  sample-hold
attr title  "data queue length, timeavg"
scalar scenarioPRJP1.node[60].wlan[0].mgmt 	dropPkByQueue:count 	0
attr interpolationmode  none
attr source  dropPkByQueue
attr title  "packets dropped by queue, count"
scalar scenarioPRJP1.node[60].wlan[0].mgmt 	dropPkByQueue:sum(packetBytes) 	0
attr interpolationmode  none
attr source  dropPkByQueue
attr title  "packets dropped by queue, sum(packetBytes)"
scalar scenarioPRJP1.node[60].wlan[0].mac 	"number of received packets" 	5075
scalar scenarioPRJP1.node[60].wlan[0].mac 	"number of collisions" 	65094
scalar scenarioPRJP1.node[60].wlan[0].mac 	"number of internal collisions" 	1
scalar scenarioPRJP1.node[60].wlan[0].mac 	"number of retry for AC 0" 	14805
scalar scenarioPRJP1.node[60].wlan[0].mac 	"number of retry for AC 1" 	6
scalar scenarioPRJP1.node[60].wlan[0].mac 	"number of retry for AC 2" 	0
scalar scenarioPRJP1.node[60].wlan[0].mac 	"number of retry for AC 3" 	0
scalar scenarioPRJP1.node[60].wlan[0].mac 	"sent and received bits" 	21257088
scalar scenarioPRJP1.node[60].wlan[0].mac 	"sent packet within AC 0" 	3111
scalar scenarioPRJP1.node[60].wlan[0].mac 	"sent packet within AC 1" 	3
scalar scenarioPRJP1.node[60].wlan[0].mac 	"sent packet within AC 2" 	0
scalar scenarioPRJP1.node[60].wlan[0].mac 	"sent packet within AC 3" 	0
scalar scenarioPRJP1.node[60].wlan[0].mac 	"sent in TXOP " 	0
scalar scenarioPRJP1.node[60].wlan[0].mac 	"sentWithoutRetry AC 0" 	2520
scalar scenarioPRJP1.node[60].wlan[0].mac 	"sentWithoutRetry AC 1" 	3
scalar scenarioPRJP1.node[60].wlan[0].mac 	"sentWithoutRetry AC 2" 	0
scalar scenarioPRJP1.node[60].wlan[0].mac 	"sentWithoutRetry AC 3" 	0
scalar scenarioPRJP1.node[60].wlan[0].mac 	"numGivenUp AC 0" 	2290
scalar scenarioPRJP1.node[60].wlan[0].mac 	"numGivenUp AC 1" 	1
scalar scenarioPRJP1.node[60].wlan[0].mac 	"numGivenUp AC 2" 	0
scalar scenarioPRJP1.node[60].wlan[0].mac 	"numGivenUp AC 3" 	0
scalar scenarioPRJP1.node[60].wlan[0].mac 	"numDropped AC 0" 	0
scalar scenarioPRJP1.node[60].wlan[0].mac 	"numDropped AC 1" 	0
scalar scenarioPRJP1.node[60].wlan[0].mac 	"numDropped AC 2" 	0
scalar scenarioPRJP1.node[60].wlan[0].mac 	"numDropped AC 3" 	0
scalar scenarioPRJP1.node[60].wlan[0].mac 	rcvdPkFromLL:count 	254966
attr interpolationmode  none
attr source  packetReceivedFromLower
attr title  "packets received from lower layer, count"
scalar scenarioPRJP1.node[60].wlan[0].mac 	rcvdPkFromLL:sum(packetBytes) 	46044222
attr interpolationmode  none
attr source  packetReceivedFromLower
attr title  "packets received from lower layer, sum(packetBytes)"
scalar scenarioPRJP1.node[60].wlan[0].mac 	sentDownPk:count 	48281
attr interpolationmode  none
attr source  packetSentToLower
attr title  "packets sent to lower layer, count"
scalar scenarioPRJP1.node[60].wlan[0].mac 	sentDownPk:sum(packetBytes) 	8830186
attr interpolationmode  none
attr source  packetSentToLower
attr title  "packets sent to lower layer, sum(packetBytes)"
scalar scenarioPRJP1.node[60].wlan[0].mac 	rcvdPkFromHL:count 	28396
attr interpolationmode  none
attr source  packetReceivedFromUpper
attr title  "packets received from higher layer, count"
scalar scenarioPRJP1.node[60].wlan[0].mac 	rcvdPkFromHL:sum(packetBytes) 	3485508
attr interpolationmode  none
attr source  packetReceivedFromUpper
attr title  "packets received from higher layer, sum(packetBytes)"
scalar scenarioPRJP1.node[60].wlan[0].mac 	passedUpPk:count 	109540
attr interpolationmode  none
attr source  packetSentToUpper
attr title  "packets passed to higher layer, count"
scalar scenarioPRJP1.node[60].wlan[0].mac 	passedUpPk:sum(packetBytes) 	10132308
attr interpolationmode  none
attr source  packetSentToUpper
attr title  "packets passed to higher layer, sum(packetBytes)"
statistic scenarioPRJP1.node[60].wlan[0].radio 	radioChannel:histogram
field count 1
field mean 3
field stddev -nan
field sum 3
field sqrsum 9
field min 3
field max 3
attr interpolationmode  sample-hold
attr source  radioChannelChanged
attr title  "Radio channel, histogram"
bin	-INF	0
bin	2	0
bin	3	1
bin	4	0
scalar scenarioPRJP1.node[60].wlan[0].radio 	transmissionState:count 	193124
attr interpolationmode  sample-hold
attr source  transmissionStateChanged
attr title  "Radio transmission state, count"
scalar scenarioPRJP1.node[60].wlan[0].radio 	receptionState:count 	625188
attr interpolationmode  sample-hold
attr source  receptionStateChanged
attr title  "Radio reception state, count"
scalar scenarioPRJP1.node[60].wlan[0].radio 	radioMode:count 	96564
attr interpolationmode  sample-hold
attr source  radioModeChanged
attr title  "Radio mode, count"
statistic scenarioPRJP1.node[60].wlan[0].radio 	symbolErrorRate:histogram
field count 0
field mean -nan
field stddev -nan
field sum 0
field sqrsum 0
field min -nan
field max -nan
attr source  symbolErrorRate
attr title  "Symbol error rate, histogram"
bin	-INF	0
bin	-0.5	0
bin	-0.46666666666667	0
bin	-0.43333333333333	0
bin	-0.4	0
bin	-0.36666666666667	0
bin	-0.33333333333333	0
bin	-0.3	0
bin	-0.26666666666667	0
bin	-0.23333333333333	0
bin	-0.2	0
bin	-0.16666666666667	0
bin	-0.13333333333333	0
bin	-0.1	0
bin	-0.066666666666667	0
bin	-0.033333333333333	0
bin	0	0
bin	0.033333333333333	0
bin	0.066666666666667	0
bin	0.1	0
bin	0.13333333333333	0
bin	0.16666666666667	0
bin	0.2	0
bin	0.23333333333333	0
bin	0.26666666666667	0
bin	0.3	0
bin	0.33333333333333	0
bin	0.36666666666667	0
bin	0.4	0
bin	0.43333333333333	0
bin	0.46666666666667	0
bin	0.5	0
statistic scenarioPRJP1.node[60].wlan[0].radio 	bitErrorRate:histogram
field count 0
field mean -nan
field stddev -nan
field sum 0
field sqrsum 0
field min -nan
field max -nan
attr source  bitErrorRate
attr title  "Bit error rate, histogram"
bin	-INF	0
bin	-0.5	0
bin	-0.46666666666667	0
bin	-0.43333333333333	0
bin	-0.4	0
bin	-0.36666666666667	0
bin	-0.33333333333333	0
bin	-0.3	0
bin	-0.26666666666667	0
bin	-0.23333333333333	0
bin	-0.2	0
bin	-0.16666666666667	0
bin	-0.13333333333333	0
bin	-0.1	0
bin	-0.066666666666667	0
bin	-0.033333333333333	0
bin	0	0
bin	0.033333333333333	0
bin	0.066666666666667	0
bin	0.1	0
bin	0.13333333333333	0
bin	0.16666666666667	0
bin	0.2	0
bin	0.23333333333333	0
bin	0.26666666666667	0
bin	0.3	0
bin	0.33333333333333	0
bin	0.36666666666667	0
bin	0.4	0
bin	0.43333333333333	0
bin	0.46666666666667	0
bin	0.5	0
statistic scenarioPRJP1.node[60].wlan[0].radio 	packetErrorRate:histogram
field count 254966
field mean 0.22180797906993
field stddev 0.40574593173047
field sum 56553.493191544
field sqrsum 54518.843077059
field min 0
field max 1
attr source  packetErrorRate
attr title  "Packet error rate, histogram"
bin	-INF	0
bin	-0.5	0
bin	-0.43333333333333	0
bin	-0.36666666666667	0
bin	-0.3	0
bin	-0.23333333333333	0
bin	-0.16666666666667	0
bin	-0.1	0
bin	-0.033333333333333	189962
bin	0.033333333333333	3506
bin	0.1	1666
bin	0.16666666666667	1104
bin	0.23333333333333	867
bin	0.3	742
bin	0.36666666666667	637
bin	0.43333333333333	658
bin	0.5	528
bin	0.56666666666667	525
bin	0.63333333333333	518
bin	0.7	482
bin	0.76666666666667	592
bin	0.83333333333333	714
bin	0.9	1060
bin	0.96666666666667	51405
bin	1.0333333333333	0
bin	1.1	0
bin	1.1666666666667	0
bin	1.2333333333333	0
bin	1.3	0
bin	1.3666666666667	0
bin	1.4333333333333	0
bin	1.5	0
statistic scenarioPRJP1.node[60].wlan[0].radio 	minSNIR:histogram
field count 254966
field mean 2011.1759734335
field stddev 21478.046717104
field sum 512781493.24245
field sqrsum 1.1864830324109e+14
field min 7.0793641012093e-05
field max 2228945.1942779
attr source  minSNIR
attr title  "Min SNIR, histogram"
bin	-INF	0
bin	-282.0719210245	0
bin	-244.46169811009	0
bin	-206.85147519568	0
bin	-169.24125228128	0
bin	-131.63102936687	0
bin	-94.020806452462	0
bin	-56.410583538055	0
bin	-18.800360623648	143302
bin	18.809862290759	26963
bin	56.420085205167	8913
bin	94.030308119574	6874
bin	131.64053103398	11035
bin	169.25075394839	6994
bin	206.86097686279	4934
bin	244.4711997772	3561
bin	282.08142269161	2822
bin	319.69164560602	2189
bin	357.30186852042	1802
bin	394.91209143483	1554
bin	432.52231434924	1370
bin	470.13253726364	1191
bin	507.74276017805	1055
bin	545.35298309246	976
bin	582.96320600687	886
bin	620.57342892127	790
bin	658.18365183568	708
bin	695.79387475009	703
bin	733.40409766449	665
bin	771.0143205789	557
bin	808.62454349331	508
bin	846.23476640772	24614
scalar scenarioPRJP1.node[60].lo0.lo 	droppedPkBitError:count 	0
attr interpolationmode  none
attr source  dropPkBitError
attr title  "packets dropped/bit error, count"
scalar scenarioPRJP1.node[60].lo0.lo 	droppedPkBitError:sum(packetBytes) 	0
attr interpolationmode  none
attr source  dropPkBitError
attr title  "packets dropped/bit error, sum(packetBytes)"
scalar scenarioPRJP1.node[60].lo0.lo 	rcvdPkFromHL:count 	0
attr interpolationmode  none
attr source  packetReceivedFromUpper
attr title  "packets received from higher layer, count"
scalar scenarioPRJP1.node[60].lo0.lo 	rcvdPkFromHL:sum(packetBytes) 	0
attr interpolationmode  none
attr source  packetReceivedFromUpper
attr title  "packets received from higher layer, sum(packetBytes)"
scalar scenarioPRJP1.node[60].lo0.lo 	passedUpPk:count 	0
attr interpolationmode  none
attr source  packetSentToUpper
attr title  "packets passed to higher layer, count"
scalar scenarioPRJP1.node[60].lo0.lo 	passedUpPk:sum(packetBytes) 	0
attr interpolationmode  none
attr source  packetSentToUpper
attr title  "packets passed to higher layer, sum(packetBytes)"
scalar scenarioPRJP1.node[1].app 	"Total sent" 	2626
scalar scenarioPRJP1.node[1].app 	"Total received" 	158
scalar scenarioPRJP1.node[1].app 	"Total deleted" 	36
scalar scenarioPRJP1.node[1].app 	dropPk:count 	36
attr interpolationmode  none
attr source  dropPk
attr title  "packets dropped, count"
scalar scenarioPRJP1.node[1].app 	dropPk:sum(packetBytes) 	18432
attr interpolationmode  none
attr source  dropPk
attr title  "packets dropped, sum(packetBytes)"
scalar scenarioPRJP1.node[1].app 	outOfOrderPk:count 	9
attr interpolationmode  none
attr source  outOfOrderPk
attr title  "packets received out of order, count"
scalar scenarioPRJP1.node[1].app 	outOfOrderPk:sum(packetBytes) 	4608
attr interpolationmode  none
attr source  outOfOrderPk
attr title  "packets received out of order, sum(packetBytes)"
scalar scenarioPRJP1.node[1].app 	rcvdPk:count 	158
attr interpolationmode  none
attr source  rcvdPk
attr title  "packets received, count"
scalar scenarioPRJP1.node[1].app 	rcvdPk:sum(packetBytes) 	80896
attr interpolationmode  none
attr source  rcvdPk
attr title  "packets received, sum(packetBytes)"
statistic scenarioPRJP1.node[1].app 	endToEndDelay:histogram
field count 158
field mean 0.46083878155363
field stddev 2.0005508155648
field sum 72.812527485473
field sqrsum 661.90079625639
field min 0.000928230383
field max 14.457487789511
attr interpolationmode  none
attr source  messageAge(rcvdPk)
attr title  "delay, histogram"
attr unit  s
bin	-INF	0
bin	-5.2294150526195	0
bin	-4.5320359482192	0
bin	-3.8346568438188	0
bin	-3.1372777394185	0
bin	-2.4398986350182	0
bin	-1.7425195306178	0
bin	-1.0451404262175	0
bin	-0.34776132181717	139
bin	0.34961778258317	5
bin	1.0469968869835	5
bin	1.7443759913838	4
bin	2.4417550957842	1
bin	3.1391342001845	0
bin	3.8365133045848	0
bin	4.5338924089852	0
bin	5.2312715133855	0
bin	5.9286506177858	0
bin	6.6260297221862	0
bin	7.3234088265865	0
bin	8.0207879309868	0
bin	8.7181670353872	0
bin	9.4155461397875	0
bin	10.112925244188	1
bin	10.810304348588	1
bin	11.507683452988	0
bin	12.205062557389	0
bin	12.902441661789	0
bin	13.599820766189	1
bin	14.29719987059	1
bin	14.99457897499	0
bin	15.69195807939	0
scalar scenarioPRJP1.node[1].app 	sentPk:count 	2626
attr interpolationmode  none
attr source  sentPk
attr title  "packets sent, count"
scalar scenarioPRJP1.node[1].app 	sentPk:sum(packetBytes) 	1344512
attr interpolationmode  none
attr source  sentPk
attr title  "packets sent, sum(packetBytes)"
scalar scenarioPRJP1.node[1].udp 	droppedPkBadChecksum:count 	0
attr interpolationmode  none
attr title  "packets dropped (checksum error), count"
scalar scenarioPRJP1.node[1].udp 	droppedPkWrongPort:count 	0
attr interpolationmode  none
attr title  "packets dropped (wrong port), count"
scalar scenarioPRJP1.node[1].udp 	passedUpPk:count 	203
attr interpolationmode  none
attr title  "packets passed up, count"
scalar scenarioPRJP1.node[1].udp 	rcvdPk:count 	203
attr interpolationmode  none
attr source  rcvdPk
attr title  "packets received, count"
scalar scenarioPRJP1.node[1].udp 	rcvdPk:sum(packetBytes) 	105560
attr interpolationmode  none
attr source  rcvdPk
attr title  "packets received, sum(packetBytes)"
scalar scenarioPRJP1.node[1].udp 	sentPk:count 	2626
attr interpolationmode  none
attr source  sentPk
attr title  "packets sent, count"
scalar scenarioPRJP1.node[1].udp 	sentPk:sum(packetBytes) 	1365520
attr interpolationmode  none
attr source  sentPk
attr title  "packets sent, sum(packetBytes)"
scalar scenarioPRJP1.node[1].networkLayer.arp 	failedARPResolution:count 	242
attr title  "ARP failed resolutions, count"
scalar scenarioPRJP1.node[1].networkLayer.arp 	completedARPResolution:count 	4402
attr title  "ARP completed resolutions, count"
scalar scenarioPRJP1.node[1].networkLayer.arp 	initiatedARPResolution:count 	324
attr title  "ARP initiated resolutions, count"
scalar scenarioPRJP1.node[1].networkLayer.arp 	sentReply:count 	67
attr title  "ARP replies sent, count"
scalar scenarioPRJP1.node[1].networkLayer.arp 	sentReq:count 	883
attr title  "ARP request sent, count"
scalar scenarioPRJP1.node[1].mobility 	startTime 	0.1
scalar scenarioPRJP1.node[1].mobility 	totalTime 	949.8
scalar scenarioPRJP1.node[1].mobility 	stopTime 	950
scalar scenarioPRJP1.node[1].mobility 	minSpeed 	2.475447880593e-13
scalar scenarioPRJP1.node[1].mobility 	maxSpeed 	15.927828671195
scalar scenarioPRJP1.node[1].mobility 	totalDistance 	8603.6511822812
scalar scenarioPRJP1.node[1].mobility 	totalCO2Emission 	2303.5726940594
scalar scenarioPRJP1.node[1].wlan[0].mgmt 	dataQueueLen:max 	19
attr interpolationmode  sample-hold
attr title  "data queue length, max"
scalar scenarioPRJP1.node[1].wlan[0].mgmt 	dataQueueLen:timeavg 	0
attr interpolationmode  sample-hold
attr title  "data queue length, timeavg"
scalar scenarioPRJP1.node[1].wlan[0].mgmt 	dropPkByQueue:count 	0
attr interpolationmode  none
attr source  dropPkByQueue
attr title  "packets dropped by queue, count"
scalar scenarioPRJP1.node[1].wlan[0].mgmt 	dropPkByQueue:sum(packetBytes) 	0
attr interpolationmode  none
attr source  dropPkByQueue
attr title  "packets dropped by queue, sum(packetBytes)"
scalar scenarioPRJP1.node[1].wlan[0].mac 	"number of received packets" 	2856
scalar scenarioPRJP1.node[1].wlan[0].mac 	"number of collisions" 	54755
scalar scenarioPRJP1.node[1].wlan[0].mac 	"number of internal collisions" 	0
scalar scenarioPRJP1.node[1].wlan[0].mac 	"number of retry for AC 0" 	10394
scalar scenarioPRJP1.node[1].wlan[0].mac 	"number of retry for AC 1" 	0
scalar scenarioPRJP1.node[1].wlan[0].mac 	"number of retry for AC 2" 	0
scalar scenarioPRJP1.node[1].wlan[0].mac 	"number of retry for AC 3" 	0
scalar scenarioPRJP1.node[1].wlan[0].mac 	"sent and received bits" 	19437696
scalar scenarioPRJP1.node[1].wlan[0].mac 	"sent packet within AC 0" 	1704
scalar scenarioPRJP1.node[1].wlan[0].mac 	"sent packet within AC 1" 	1
scalar scenarioPRJP1.node[1].wlan[0].mac 	"sent packet within AC 2" 	0
scalar scenarioPRJP1.node[1].wlan[0].mac 	"sent packet within AC 3" 	0
scalar scenarioPRJP1.node[1].wlan[0].mac 	"sent in TXOP " 	0
scalar scenarioPRJP1.node[1].wlan[0].mac 	"sentWithoutRetry AC 0" 	1432
scalar scenarioPRJP1.node[1].wlan[0].mac 	"sentWithoutRetry AC 1" 	1
scalar scenarioPRJP1.node[1].wlan[0].mac 	"sentWithoutRetry AC 2" 	0
scalar scenarioPRJP1.node[1].wlan[0].mac 	"sentWithoutRetry AC 3" 	0
scalar scenarioPRJP1.node[1].wlan[0].mac 	"numGivenUp AC 0" 	1648
scalar scenarioPRJP1.node[1].wlan[0].mac 	"numGivenUp AC 1" 	0
scalar scenarioPRJP1.node[1].wlan[0].mac 	"numGivenUp AC 2" 	0
scalar scenarioPRJP1.node[1].wlan[0].mac 	"numGivenUp AC 3" 	0
scalar scenarioPRJP1.node[1].wlan[0].mac 	"numDropped AC 0" 	0
scalar scenarioPRJP1.node[1].wlan[0].mac 	"numDropped AC 1" 	0
scalar scenarioPRJP1.node[1].wlan[0].mac 	"numDropped AC 2" 	0
scalar scenarioPRJP1.node[1].wlan[0].mac 	"numDropped AC 3" 	0
scalar scenarioPRJP1.node[1].wlan[0].mac 	rcvdPkFromLL:count 	252293
attr interpolationmode  none
attr source  packetReceivedFromLower
attr title  "packets received from lower layer, count"
scalar scenarioPRJP1.node[1].wlan[0].mac 	rcvdPkFromLL:sum(packetBytes) 	46310470
attr interpolationmode  none
attr source  packetReceivedFromLower
attr title  "packets received from lower layer, sum(packetBytes)"
scalar scenarioPRJP1.node[1].wlan[0].mac 	sentDownPk:count 	38467
attr interpolationmode  none
attr source  packetSentToLower
attr title  "packets sent to lower layer, count"
scalar scenarioPRJP1.node[1].wlan[0].mac 	sentDownPk:sum(packetBytes) 	7221380
attr interpolationmode  none
attr source  packetSentToLower
attr title  "packets sent to lower layer, sum(packetBytes)"
scalar scenarioPRJP1.node[1].wlan[0].mac 	rcvdPkFromHL:count 	25217
attr interpolationmode  none
attr source  packetReceivedFromUpper
attr title  "packets received from higher layer, count"
scalar scenarioPRJP1.node[1].wlan[0].mac 	rcvdPkFromHL:sum(packetBytes) 	3074768
attr interpolationmode  none
attr source  packetReceivedFromUpper
attr title  "packets received from higher layer, sum(packetBytes)"
scalar scenarioPRJP1.node[1].wlan[0].mac 	passedUpPk:count 	114712
attr interpolationmode  none
attr source  packetSentToUpper
attr title  "packets passed to higher layer, count"
scalar scenarioPRJP1.node[1].wlan[0].mac 	passedUpPk:sum(packetBytes) 	10438176
attr interpolationmode  none
attr source  packetSentToUpper
attr title  "packets passed to higher layer, sum(packetBytes)"
statistic scenarioPRJP1.node[1].wlan[0].radio 	radioChannel:histogram
field count 1
field mean 3
field stddev -nan
field sum 3
field sqrsum 9
field min 3
field max 3
attr interpolationmode  sample-hold
attr source  radioChannelChanged
attr title  "Radio channel, histogram"
bin	-INF	0
bin	2	0
bin	3	1
bin	4	0
scalar scenarioPRJP1.node[1].wlan[0].radio 	transmissionState:count 	153868
attr interpolationmode  sample-hold
attr source  transmissionStateChanged
attr title  "Radio transmission state, count"
scalar scenarioPRJP1.node[1].wlan[0].radio 	receptionState:count 	597527
attr interpolationmode  sample-hold
attr source  receptionStateChanged
attr title  "Radio reception state, count"
scalar scenarioPRJP1.node[1].wlan[0].radio 	radioMode:count 	76936
attr interpolationmode  sample-hold
attr source  radioModeChanged
attr title  "Radio mode, count"
statistic scenarioPRJP1.node[1].wlan[0].radio 	symbolErrorRate:histogram
field count 0
field mean -nan
field stddev -nan
field sum 0
field sqrsum 0
field min -nan
field max -nan
attr source  symbolErrorRate
attr title  "Symbol error rate, histogram"
bin	-INF	0
bin	-0.5	0
bin	-0.46666666666667	0
bin	-0.43333333333333	0
bin	-0.4	0
bin	-0.36666666666667	0
bin	-0.33333333333333	0
bin	-0.3	0
bin	-0.26666666666667	0
bin	-0.23333333333333	0
bin	-0.2	0
bin	-0.16666666666667	0
bin	-0.13333333333333	0
bin	-0.1	0
bin	-0.066666666666667	0
bin	-0.033333333333333	0
bin	0	0
bin	0.033333333333333	0
bin	0.066666666666667	0
bin	0.1	0
bin	0.13333333333333	0
bin	0.16666666666667	0
bin	0.2	0
bin	0.23333333333333	0
bin	0.26666666666667	0
bin	0.3	0
bin	0.33333333333333	0
bin	0.36666666666667	0
bin	0.4	0
bin	0.43333333333333	0
bin	0.46666666666667	0
bin	0.5	0
statistic scenarioPRJP1.node[1].wlan[0].radio 	bitErrorRate:histogram
field count 0
field mean -nan
field stddev -nan
field sum 0
field sqrsum 0
field min -nan
field max -nan
attr source  bitErrorRate
attr title  "Bit error rate, histogram"
bin	-INF	0
bin	-0.5	0
bin	-0.46666666666667	0
bin	-0.43333333333333	0
bin	-0.4	0
bin	-0.36666666666667	0
bin	-0.33333333333333	0
bin	-0.3	0
bin	-0.26666666666667	0
bin	-0.23333333333333	0
bin	-0.2	0
bin	-0.16666666666667	0
bin	-0.13333333333333	0
bin	-0.1	0
bin	-0.066666666666667	0
bin	-0.033333333333333	0
bin	0	0
bin	0.033333333333333	0
bin	0.066666666666667	0
bin	0.1	0
bin	0.13333333333333	0
bin	0.16666666666667	0
bin	0.2	0
bin	0.23333333333333	0
bin	0.26666666666667	0
bin	0.3	0
bin	0.33333333333333	0
bin	0.36666666666667	0
bin	0.4	0
bin	0.43333333333333	0
bin	0.46666666666667	0
bin	0.5	0
statistic scenarioPRJP1.node[1].wlan[0].radio 	packetErrorRate:histogram
field count 252293
field mean 0.18749186001256
field stddev 0.38114878857945
field sum 47302.883838149
field sqrsum 45520.474356257
field min 0
field max 1
attr source  packetErrorRate
attr title  "Packet error rate, histogram"
bin	-INF	0
bin	-0.5	0
bin	-0.43333333333333	0
bin	-0.36666666666667	0
bin	-0.3	0
bin	-0.23333333333333	0
bin	-0.16666666666667	0
bin	-0.1	0
bin	-0.033333333333333	197464
bin	0.033333333333333	3121
bin	0.1	1523
bin	0.16666666666667	1024
bin	0.23333333333333	779
bin	0.3	668
bin	0.36666666666667	576
bin	0.43333333333333	480
bin	0.5	487
bin	0.56666666666667	442
bin	0.63333333333333	440
bin	0.7	457
bin	0.76666666666667	464
bin	0.83333333333333	580
bin	0.9	918
bin	0.96666666666667	42870
bin	1.0333333333333	0
bin	1.1	0
bin	1.1666666666667	0
bin	1.2333333333333	0
bin	1.3	0
bin	1.3666666666667	0
bin	1.4333333333333	0
bin	1.5	0
statistic scenarioPRJP1.node[1].wlan[0].radio 	minSNIR:histogram
field count 252293
field mean 2272.2147381117
field stddev 21573.327355445
field sum 573263872.92241
field sqrsum 1.1872140809188e+14
field min 0.00010845692195051
field max 1858242.7104491
attr source  minSNIR
attr title  "Min SNIR, histogram"
bin	-INF	0
bin	-263510.05196739	0
bin	-228375.3781267	0
bin	-193240.70428601	0
bin	-158106.03044532	0
bin	-122971.35660463	0
bin	-87836.682763937	0
bin	-52702.008923246	0
bin	-17567.335082555	247275
bin	17567.338758136	2750
bin	52702.012598826	865
bin	87836.686439517	387
bin	122971.36028021	241
bin	158106.0341209	181
bin	193240.70796159	120
bin	228375.38180228	104
bin	263510.05564297	81
bin	298644.72948366	55
bin	333779.40332435	43
bin	368914.07716504	33
bin	404048.75100573	31
bin	439183.42484642	26
bin	474318.09868712	17
bin	509452.77252781	15
bin	544587.4463685	12
bin	579722.12020919	6
bin	614856.79404988	10
bin	649991.46789057	10
bin	685126.14173126	3
bin	720260.81557195	4
bin	755395.48941264	5
bin	790530.16325333	19
scalar scenarioPRJP1.node[1].lo0.lo 	droppedPkBitError:count 	0
attr interpolationmode  none
attr source  dropPkBitError
attr title  "packets dropped/bit error, count"
scalar scenarioPRJP1.node[1].lo0.lo 	droppedPkBitError:sum(packetBytes) 	0
attr interpolationmode  none
attr source  dropPkBitError
attr title  "packets dropped/bit error, sum(packetBytes)"
scalar scenarioPRJP1.node[1].lo0.lo 	rcvdPkFromHL:count 	0
attr interpolationmode  none
attr source  packetReceivedFromUpper
attr title  "packets received from higher layer, count"
scalar scenarioPRJP1.node[1].lo0.lo 	rcvdPkFromHL:sum(packetBytes) 	0
attr interpolationmode  none
attr source  packetReceivedFromUpper
attr title  "packets received from higher layer, sum(packetBytes)"
scalar scenarioPRJP1.node[1].lo0.lo 	passedUpPk:count 	0
attr interpolationmode  none
attr source  packetSentToUpper
attr title  "packets passed to higher layer, count"
scalar scenarioPRJP1.node[1].lo0.lo 	passedUpPk:sum(packetBytes) 	0
attr interpolationmode  none
attr source  packetSentToUpper
attr title  "packets passed to higher layer, sum(packetBytes)"
scalar scenarioPRJP1.node[21].app 	"Total sent" 	2606
scalar scenarioPRJP1.node[21].app 	"Total received" 	179
scalar scenarioPRJP1.node[21].app 	"Total deleted" 	19
scalar scenarioPRJP1.node[21].app 	dropPk:count 	19
attr interpolationmode  none
attr source  dropPk
attr title  "packets dropped, count"
scalar scenarioPRJP1.node[21].app 	dropPk:sum(packetBytes) 	9728
attr interpolationmode  none
attr source  dropPk
attr title  "packets dropped, sum(packetBytes)"
scalar scenarioPRJP1.node[21].app 	outOfOrderPk:count 	19
attr interpolationmode  none
attr source  outOfOrderPk
attr title  "packets received out of order, count"
scalar scenarioPRJP1.node[21].app 	outOfOrderPk:sum(packetBytes) 	9728
attr interpolationmode  none
attr source  outOfOrderPk
attr title  "packets received out of order, sum(packetBytes)"
scalar scenarioPRJP1.node[21].app 	rcvdPk:count 	179
attr interpolationmode  none
attr source  rcvdPk
attr title  "packets received, count"
scalar scenarioPRJP1.node[21].app 	rcvdPk:sum(packetBytes) 	91648
attr interpolationmode  none
attr source  rcvdPk
attr title  "packets received, sum(packetBytes)"
statistic scenarioPRJP1.node[21].app 	endToEndDelay:histogram
field count 179
field mean 0.89347131518093
field stddev 2.7886498902943
field sum 159.93136541739
field sqrsum 1527.1232288918
field min 0.000946368561
field max 19.386122252984
attr interpolationmode  none
attr source  messageAge(rcvdPk)
attr title  "delay, histogram"
attr unit  s
bin	-INF	0
bin	-7.8291061967195	0
bin	-6.7850958882778	0
bin	-5.7410855798362	0
bin	-4.6970752713945	0
bin	-3.6530649629528	0
bin	-2.6090546545112	0
bin	-1.5650443460695	0
bin	-0.52103403762783	147
bin	0.52297627081383	6
bin	1.5669865792555	9
bin	2.6109968876972	5
bin	3.6550071961388	4
bin	4.6990175045805	0
bin	5.7430278130222	1
bin	6.7870381214638	1
bin	7.8310484299055	0
bin	8.8750587383472	0
bin	9.9190690467888	2
bin	10.96307935523	0
bin	12.007089663672	1
bin	13.051099972114	0
bin	14.095110280555	0
bin	15.139120588997	1
bin	16.183130897439	1
bin	17.22714120588	0
bin	18.271151514322	0
bin	19.315161822764	1
bin	20.359172131205	0
bin	21.403182439647	0
bin	22.447192748089	0
bin	23.49120305653	0
scalar scenarioPRJP1.node[21].app 	sentPk:count 	2606
attr interpolationmode  none
attr source  sentPk
attr title  "packets sent, count"
scalar scenarioPRJP1.node[21].app 	sentPk:sum(packetBytes) 	1334272
attr interpolationmode  none
attr source  sentPk
attr title  "packets sent, sum(packetBytes)"
scalar scenarioPRJP1.node[21].udp 	droppedPkBadChecksum:count 	0
attr interpolationmode  none
attr title  "packets dropped (checksum error), count"
scalar scenarioPRJP1.node[21].udp 	droppedPkWrongPort:count 	0
attr interpolationmode  none
attr title  "packets dropped (wrong port), count"
scalar scenarioPRJP1.node[21].udp 	passedUpPk:count 	217
attr interpolationmode  none
attr title  "packets passed up, count"
scalar scenarioPRJP1.node[21].udp 	rcvdPk:count 	217
attr interpolationmode  none
attr source  rcvdPk
attr title  "packets received, count"
scalar scenarioPRJP1.node[21].udp 	rcvdPk:sum(packetBytes) 	112840
attr interpolationmode  none
attr source  rcvdPk
attr title  "packets received, sum(packetBytes)"
scalar scenarioPRJP1.node[21].udp 	sentPk:count 	2606
attr interpolationmode  none
attr source  sentPk
attr title  "packets sent, count"
scalar scenarioPRJP1.node[21].udp 	sentPk:sum(packetBytes) 	1355120
attr interpolationmode  none
attr source  sentPk
attr title  "packets sent, sum(packetBytes)"
scalar scenarioPRJP1.node[21].networkLayer.arp 	failedARPResolution:count 	334
attr title  "ARP failed resolutions, count"
scalar scenarioPRJP1.node[21].networkLayer.arp 	completedARPResolution:count 	4561
attr title  "ARP completed resolutions, count"
scalar scenarioPRJP1.node[21].networkLayer.arp 	initiatedARPResolution:count 	427
attr title  "ARP initiated resolutions, count"
scalar scenarioPRJP1.node[21].networkLayer.arp 	sentReply:count 	75
attr title  "ARP replies sent, count"
scalar scenarioPRJP1.node[21].networkLayer.arp 	sentReq:count 	1173
attr title  "ARP request sent, count"
scalar scenarioPRJP1.node[21].mobility 	startTime 	2.5
scalar scenarioPRJP1.node[21].mobility 	totalTime 	947.4
scalar scenarioPRJP1.node[21].mobility 	stopTime 	950
scalar scenarioPRJP1.node[21].mobility 	minSpeed 	2.4755542878426e-13
scalar scenarioPRJP1.node[21].mobility 	maxSpeed 	15.506771264094
scalar scenarioPRJP1.node[21].mobility 	totalDistance 	8442.9249997528
scalar scenarioPRJP1.node[21].mobility 	totalCO2Emission 	2234.4464177643
scalar scenarioPRJP1.node[21].wlan[0].mgmt 	dataQueueLen:max 	23
attr interpolationmode  sample-hold
attr title  "data queue length, max"
scalar scenarioPRJP1.node[21].wlan[0].mgmt 	dataQueueLen:timeavg 	0
attr interpolationmode  sample-hold
attr title  "data queue length, timeavg"
scalar scenarioPRJP1.node[21].wlan[0].mgmt 	dropPkByQueue:count 	0
attr interpolationmode  none
attr source  dropPkByQueue
attr title  "packets dropped by queue, count"
scalar scenarioPRJP1.node[21].wlan[0].mgmt 	dropPkByQueue:sum(packetBytes) 	0
attr interpolationmode  none
attr source  dropPkByQueue
attr title  "packets dropped by queue, sum(packetBytes)"
scalar scenarioPRJP1.node[21].wlan[0].mac 	"number of received packets" 	3693
scalar scenarioPRJP1.node[21].wlan[0].mac 	"number of collisions" 	76776
scalar scenarioPRJP1.node[21].wlan[0].mac 	"number of internal collisions" 	2
scalar scenarioPRJP1.node[21].wlan[0].mac 	"number of retry for AC 0" 	13721
scalar scenarioPRJP1.node[21].wlan[0].mac 	"number of retry for AC 1" 	8
scalar scenarioPRJP1.node[21].wlan[0].mac 	"number of retry for AC 2" 	0
scalar scenarioPRJP1.node[21].wlan[0].mac 	"number of retry for AC 3" 	0
scalar scenarioPRJP1.node[21].wlan[0].mac 	"sent and received bits" 	19475904
scalar scenarioPRJP1.node[21].wlan[0].mac 	"sent packet within AC 0" 	1723
scalar scenarioPRJP1.node[21].wlan[0].mac 	"sent packet within AC 1" 	16
scalar scenarioPRJP1.node[21].wlan[0].mac 	"sent packet within AC 2" 	0
scalar scenarioPRJP1.node[21].wlan[0].mac 	"sent packet within AC 3" 	0
scalar scenarioPRJP1.node[21].wlan[0].mac 	"sent in TXOP " 	0
scalar scenarioPRJP1.node[21].wlan[0].mac 	"sentWithoutRetry AC 0" 	1449
scalar scenarioPRJP1.node[21].wlan[0].mac 	"sentWithoutRetry AC 1" 	14
scalar scenarioPRJP1.node[21].wlan[0].mac 	"sentWithoutRetry AC 2" 	0
scalar scenarioPRJP1.node[21].wlan[0].mac 	"sentWithoutRetry AC 3" 	0
scalar scenarioPRJP1.node[21].wlan[0].mac 	"numGivenUp AC 0" 	2203
scalar scenarioPRJP1.node[21].wlan[0].mac 	"numGivenUp AC 1" 	1
scalar scenarioPRJP1.node[21].wlan[0].mac 	"numGivenUp AC 2" 	0
scalar scenarioPRJP1.node[21].wlan[0].mac 	"numGivenUp AC 3" 	0
scalar scenarioPRJP1.node[21].wlan[0].mac 	"numDropped AC 0" 	0
scalar scenarioPRJP1.node[21].wlan[0].mac 	"numDropped AC 1" 	0
scalar scenarioPRJP1.node[21].wlan[0].mac 	"numDropped AC 2" 	0
scalar scenarioPRJP1.node[21].wlan[0].mac 	"numDropped AC 3" 	0
scalar scenarioPRJP1.node[21].wlan[0].mac 	rcvdPkFromLL:count 	275642
attr interpolationmode  none
attr source  packetReceivedFromLower
attr title  "packets received from lower layer, count"
scalar scenarioPRJP1.node[21].wlan[0].mac 	rcvdPkFromLL:sum(packetBytes) 	51027966
attr interpolationmode  none
attr source  packetReceivedFromLower
attr title  "packets received from lower layer, sum(packetBytes)"
scalar scenarioPRJP1.node[21].wlan[0].mac 	sentDownPk:count 	43466
attr interpolationmode  none
attr source  packetSentToLower
attr title  "packets sent to lower layer, count"
scalar scenarioPRJP1.node[21].wlan[0].mac 	sentDownPk:sum(packetBytes) 	8719134
attr interpolationmode  none
attr source  packetSentToLower
attr title  "packets sent to lower layer, sum(packetBytes)"
scalar scenarioPRJP1.node[21].wlan[0].mac 	rcvdPkFromHL:count 	26046
attr interpolationmode  none
attr source  packetReceivedFromUpper
attr title  "packets received from higher layer, count"
scalar scenarioPRJP1.node[21].wlan[0].mac 	rcvdPkFromHL:sum(packetBytes) 	3292456
attr interpolationmode  none
attr source  packetReceivedFromUpper
[...]
attr interpolationmode  none
attr source  packetSentToUpper
attr title  "packets passed to higher layer, sum(packetBytes)"
statistic scenarioPRJP1.node[57].wlan[0].radio 	radioChannel:histogram
field count 1
field mean 3
field stddev -nan
field sum 3
field sqrsum 9
field min 3
field max 3
attr interpolationmode  sample-hold
attr source  radioChannelChanged
attr title  "Radio channel, histogram"
bin	-INF	0
bin	2	0
bin	3	1
bin	4	0
scalar scenarioPRJP1.node[57].wlan[0].radio 	transmissionState:count 	180172
attr interpolationmode  sample-hold
attr source  transmissionStateChanged
attr title  "Radio transmission state, count"
scalar scenarioPRJP1.node[57].wlan[0].radio 	receptionState:count 	585970
attr interpolationmode  sample-hold
attr source  receptionStateChanged
attr title  "Radio reception state, count"
scalar scenarioPRJP1.node[57].wlan[0].radio 	radioMode:count 	90088
attr interpolationmode  sample-hold
attr source  radioModeChanged
attr title  "Radio mode, count"
statistic scenarioPRJP1.node[57].wlan[0].radio 	symbolErrorRate:histogram
field count 0
field mean -nan
field stddev -nan
field sum 0
field sqrsum 0
field min -nan
field max -nan
attr source  symbolErrorRate
attr title  "Symbol error rate, histogram"
bin	-INF	0
bin	-0.5	0
bin	-0.46666666666667	0
bin	-0.43333333333333	0
bin	-0.4	0
bin	-0.36666666666667	0
bin	-0.33333333333333	0
bin	-0.3	0
bin	-0.26666666666667	0
bin	-0.23333333333333	0
bin	-0.2	0
bin	-0.16666666666667	0
bin	-0.13333333333333	0
bin	-0.1	0
bin	-0.066666666666667	0
bin	-0.033333333333333	0
bin	0	0
bin	0.033333333333333	0
bin	0.066666666666667	0
bin	0.1	0
bin	0.13333333333333	0
bin	0.16666666666667	0
bin	0.2	0
bin	0.23333333333333	0
bin	0.26666666666667	0
bin	0.3	0
bin	0.33333333333333	0
bin	0.36666666666667	0
bin	0.4	0
bin	0.43333333333333	0
bin	0.46666666666667	0
bin	0.5	0
statistic scenarioPRJP1.node[57].wlan[0].radio 	bitErrorRate:histogram
field count 0
field mean -nan
field stddev -nan
field sum 0
field sqrsum 0
field min -nan
field max -nan
attr source  bitErrorRate
attr title  "Bit error rate, histogram"
bin	-INF	0
bin	-0.5	0
bin	-0.46666666666667	0
bin	-0.43333333333333	0
bin	-0.4	0
bin	-0.36666666666667	0
bin	-0.33333333333333	0
bin	-0.3	0
bin	-0.26666666666667	0
bin	-0.23333333333333	0
bin	-0.2	0
bin	-0.16666666666667	0
bin	-0.13333333333333	0
bin	-0.1	0
bin	-0.066666666666667	0
bin	-0.033333333333333	0
bin	0	0
bin	0.033333333333333	0
bin	0.066666666666667	0
bin	0.1	0
bin	0.13333333333333	0
bin	0.16666666666667	0
bin	0.2	0
bin	0.23333333333333	0
bin	0.26666666666667	0
bin	0.3	0
bin	0.33333333333333	0
bin	0.36666666666667	0
bin	0.4	0
bin	0.43333333333333	0
bin	0.46666666666667	0
bin	0.5	0
statistic scenarioPRJP1.node[57].wlan[0].radio 	packetErrorRate:histogram
field count 240778
field mean 0.17189609137971
field stddev 0.36889241646167
field sum 41388.797090223
field sqrsum 39879.895443015
field min 0
field max 1
attr source  packetErrorRate
attr title  "Packet error rate, histogram"
bin	-INF	0
bin	-0.5	0
bin	-0.43333333333333	0
bin	-0.36666666666667	0
bin	-0.3	0
bin	-0.23333333333333	0
bin	-0.16666666666667	0
bin	-0.1	0
bin	-0.033333333333333	193160
bin	0.033333333333333	2550
bin	0.1	1196
bin	0.16666666666667	836
bin	0.23333333333333	680
bin	0.3	581
bin	0.36666666666667	480
bin	0.43333333333333	448
bin	0.5	430
bin	0.56666666666667	362
bin	0.63333333333333	389
bin	0.7	375
bin	0.76666666666667	427
bin	0.83333333333333	485
bin	0.9	742
bin	0.96666666666667	37637
bin	1.0333333333333	0
bin	1.1	0
bin	1.1666666666667	0
bin	1.2333333333333	0
bin	1.3	0
bin	1.3666666666667	0
bin	1.4333333333333	0
bin	1.5	0
statistic scenarioPRJP1.node[57].wlan[0].radio 	minSNIR:histogram
field count 240778
field mean 3035.2447906616
field stddev 23720.28843623
field sum 730820170.20592
field sqrsum 1.3769189882291e+14
field min 0.00010578615587313
field max 1618419.625279
attr source  minSNIR
attr title  "Min SNIR, histogram"
bin	-INF	0
bin	-513.46638023439	0
bin	-444.99539163181	0
bin	-376.52440302923	0
bin	-308.05341442664	0
bin	-239.58242582406	0
bin	-171.11143722148	0
bin	-102.64044861889	0
bin	-34.169460016311	126333
bin	34.301528586272	21851
bin	102.77251718886	16392
bin	171.24350579144	11060
bin	239.71449439402	6820
bin	308.18548299661	4902
bin	376.65647159919	3662
bin	445.12746020177	3008
bin	513.59844880435	2435
bin	582.06943740694	2068
bin	650.54042600952	1796
bin	719.0114146121	1597
bin	787.48240321469	1402
bin	855.95339181727	1223
bin	924.42438041985	1137
bin	992.89536902244	989
bin	1061.366357625	915
bin	1129.8373462276	936
bin	1198.3083348302	799
bin	1266.7793234328	791
bin	1335.2503120354	693
bin	1403.7213006379	662
bin	1472.1922892405	589
bin	1540.6632778431	28718
scalar scenarioPRJP1.node[57].lo0.lo 	droppedPkBitError:count 	0
attr interpolationmode  none
attr source  dropPkBitError
attr title  "packets dropped/bit error, count"
scalar scenarioPRJP1.node[57].lo0.lo 	droppedPkBitError:sum(packetBytes) 	0
attr interpolationmode  none
attr source  dropPkBitError
attr title  "packets dropped/bit error, sum(packetBytes)"
scalar scenarioPRJP1.node[57].lo0.lo 	rcvdPkFromHL:count 	1
attr interpolationmode  none
attr source  packetReceivedFromUpper
attr title  "packets received from higher layer, count"
scalar scenarioPRJP1.node[57].lo0.lo 	rcvdPkFromHL:sum(packetBytes) 	56
attr interpolationmode  none
attr source  packetReceivedFromUpper
attr title  "packets received from higher layer, sum(packetBytes)"
scalar scenarioPRJP1.node[57].lo0.lo 	passedUpPk:count 	1
attr interpolationmode  none
attr source  packetSentToUpper
attr title  "packets passed to higher layer, count"
scalar scenarioPRJP1.node[57].lo0.lo 	passedUpPk:sum(packetBytes) 	56
attr interpolationmode  none
attr source  packetSentToUpper
attr title  "packets passed to higher layer, sum(packetBytes)"
scalar scenarioPRJP1.node[70].app 	"Total sent" 	2599
scalar scenarioPRJP1.node[70].app 	"Total received" 	129
scalar scenarioPRJP1.node[70].app 	"Total deleted" 	43
scalar scenarioPRJP1.node[70].app 	dropPk:count 	43
attr interpolationmode  none
attr source  dropPk
attr title  "packets dropped, count"
scalar scenarioPRJP1.node[70].app 	dropPk:sum(packetBytes) 	22016
attr interpolationmode  none
attr source  dropPk
attr title  "packets dropped, sum(packetBytes)"
scalar scenarioPRJP1.node[70].app 	outOfOrderPk:count 	26
attr interpolationmode  none
attr source  outOfOrderPk
attr title  "packets received out of order, count"
scalar scenarioPRJP1.node[70].app 	outOfOrderPk:sum(packetBytes) 	13312
attr interpolationmode  none
attr source  outOfOrderPk
attr title  "packets received out of order, sum(packetBytes)"
scalar scenarioPRJP1.node[70].app 	rcvdPk:count 	129
attr interpolationmode  none
attr source  rcvdPk
attr title  "packets received, count"
scalar scenarioPRJP1.node[70].app 	rcvdPk:sum(packetBytes) 	66048
attr interpolationmode  none
attr source  rcvdPk
attr title  "packets received, sum(packetBytes)"
statistic scenarioPRJP1.node[70].app 	endToEndDelay:histogram
field count 129
field mean 0.68861390600956
field stddev 2.460718667189
field sum 88.831193875233
field sqrsum 836.2278493486
field min 0.000945077671
field max 19.076391829577
attr interpolationmode  none
attr source  messageAge(rcvdPk)
attr title  "delay, histogram"
attr unit  s
bin	-INF	0
bin	-9.536778298282	0
bin	-8.2650818481549	0
bin	-6.9933853980279	0
bin	-5.7216889479008	0
bin	-4.4499924977737	0
bin	-3.1782960476467	0
bin	-1.9065995975196	0
bin	-0.63490314739254	110
bin	0.63679330273453	8
bin	1.9084897528616	4
bin	3.1801862029887	1
bin	4.4518826531157	1
bin	5.7235791032428	0
bin	6.9952755533699	2
bin	8.2669720034969	1
bin	9.538668453624	0
bin	10.810364903751	0
bin	12.082061353878	0
bin	13.353757804005	1
bin	14.625454254132	0
bin	15.897150704259	0
bin	17.168847154386	0
bin	18.440543604513	1
bin	19.712240054641	0
bin	20.983936504768	0
bin	22.255632954895	0
bin	23.527329405022	0
bin	24.799025855149	0
bin	26.070722305276	0
bin	27.342418755403	0
bin	28.61411520553	0
scalar scenarioPRJP1.node[70].app 	sentPk:count 	2599
attr interpolationmode  none
attr source  sentPk
attr title  "packets sent, count"
scalar scenarioPRJP1.node[70].app 	sentPk:sum(packetBytes) 	1330688
attr interpolationmode  none
attr source  sentPk
attr title  "packets sent, sum(packetBytes)"
scalar scenarioPRJP1.node[70].udp 	droppedPkBadChecksum:count 	0
attr interpolationmode  none
attr title  "packets dropped (checksum error), count"
scalar scenarioPRJP1.node[70].udp 	droppedPkWrongPort:count 	0
attr interpolationmode  none
attr title  "packets dropped (wrong port), count"
scalar scenarioPRJP1.node[70].udp 	passedUpPk:count 	198
attr interpolationmode  none
attr title  "packets passed up, count"
scalar scenarioPRJP1.node[70].udp 	rcvdPk:count 	198
attr interpolationmode  none
attr source  rcvdPk
attr title  "packets received, count"
scalar scenarioPRJP1.node[70].udp 	rcvdPk:sum(packetBytes) 	102960
attr interpolationmode  none
attr source  rcvdPk
attr title  "packets received, sum(packetBytes)"
scalar scenarioPRJP1.node[70].udp 	sentPk:count 	2599
attr interpolationmode  none
attr source  sentPk
attr title  "packets sent, count"
scalar scenarioPRJP1.node[70].udp 	sentPk:sum(packetBytes) 	1351480
attr interpolationmode  none
attr source  sentPk
attr title  "packets sent, sum(packetBytes)"
scalar scenarioPRJP1.node[70].networkLayer.arp 	failedARPResolution:count 	363
attr title  "ARP failed resolutions, count"
scalar scenarioPRJP1.node[70].networkLayer.arp 	completedARPResolution:count 	4921
attr title  "ARP completed resolutions, count"
scalar scenarioPRJP1.node[70].networkLayer.arp 	initiatedARPResolution:count 	465
attr title  "ARP initiated resolutions, count"
scalar scenarioPRJP1.node[70].networkLayer.arp 	sentReply:count 	56
attr title  "ARP replies sent, count"
scalar scenarioPRJP1.node[70].networkLayer.arp 	sentReq:count 	1282
attr title  "ARP request sent, count"
scalar scenarioPRJP1.node[70].mobility 	startTime 	7.3
scalar scenarioPRJP1.node[70].mobility 	totalTime 	942.6
scalar scenarioPRJP1.node[70].mobility 	stopTime 	950
scalar scenarioPRJP1.node[70].mobility 	minSpeed 	2.4756576550427e-13
scalar scenarioPRJP1.node[70].mobility 	maxSpeed 	18.59835147728
scalar scenarioPRJP1.node[70].mobility 	totalDistance 	9335.6678309412
scalar scenarioPRJP1.node[70].mobility 	totalCO2Emission 	2515.3687166005
scalar scenarioPRJP1.node[70].wlan[0].mgmt 	dataQueueLen:max 	36
attr interpolationmode  sample-hold
attr title  "data queue length, max"
scalar scenarioPRJP1.node[70].wlan[0].mgmt 	dataQueueLen:timeavg 	0
attr interpolationmode  sample-hold
attr title  "data queue length, timeavg"
scalar scenarioPRJP1.node[70].wlan[0].mgmt 	dropPkByQueue:count 	0
attr interpolationmode  none
attr source  dropPkByQueue
attr title  "packets dropped by queue, count"
scalar scenarioPRJP1.node[70].wlan[0].mgmt 	dropPkByQueue:sum(packetBytes) 	0
attr interpolationmode  none
attr source  dropPkByQueue
attr title  "packets dropped by queue, sum(packetBytes)"
scalar scenarioPRJP1.node[70].wlan[0].mac 	"number of received packets" 	3358
scalar scenarioPRJP1.node[70].wlan[0].mac 	"number of collisions" 	66579
scalar scenarioPRJP1.node[70].wlan[0].mac 	"number of internal collisions" 	0
scalar scenarioPRJP1.node[70].wlan[0].mac 	"number of retry for AC 0" 	12470
scalar scenarioPRJP1.node[70].wlan[0].mac 	"number of retry for AC 1" 	4
scalar scenarioPRJP1.node[70].wlan[0].mac 	"number of retry for AC 2" 	0
scalar scenarioPRJP1.node[70].wlan[0].mac 	"number of retry for AC 3" 	0
scalar scenarioPRJP1.node[70].wlan[0].mac 	"sent and received bits" 	19995232
scalar scenarioPRJP1.node[70].wlan[0].mac 	"sent packet within AC 0" 	1539
scalar scenarioPRJP1.node[70].wlan[0].mac 	"sent packet within AC 1" 	2
scalar scenarioPRJP1.node[70].wlan[0].mac 	"sent packet within AC 2" 	0
scalar scenarioPRJP1.node[70].wlan[0].mac 	"sent packet within AC 3" 	0
scalar scenarioPRJP1.node[70].wlan[0].mac 	"sent in TXOP " 	0
scalar scenarioPRJP1.node[70].wlan[0].mac 	"sentWithoutRetry AC 0" 	1316
scalar scenarioPRJP1.node[70].wlan[0].mac 	"sentWithoutRetry AC 1" 	0
scalar scenarioPRJP1.node[70].wlan[0].mac 	"sentWithoutRetry AC 2" 	0
scalar scenarioPRJP1.node[70].wlan[0].mac 	"sentWithoutRetry AC 3" 	0
scalar scenarioPRJP1.node[70].wlan[0].mac 	"numGivenUp AC 0" 	2007
scalar scenarioPRJP1.node[70].wlan[0].mac 	"numGivenUp AC 1" 	0
scalar scenarioPRJP1.node[70].wlan[0].mac 	"numGivenUp AC 2" 	0
scalar scenarioPRJP1.node[70].wlan[0].mac 	"numGivenUp AC 3" 	0
scalar scenarioPRJP1.node[70].wlan[0].mac 	"numDropped AC 0" 	0
scalar scenarioPRJP1.node[70].wlan[0].mac 	"numDropped AC 1" 	0
scalar scenarioPRJP1.node[70].wlan[0].mac 	"numDropped AC 2" 	0
scalar scenarioPRJP1.node[70].wlan[0].mac 	"numDropped AC 3" 	0
scalar scenarioPRJP1.node[70].wlan[0].mac 	rcvdPkFromLL:count 	276589
attr interpolationmode  none
attr source  packetReceivedFromLower
attr title  "packets received from lower layer, count"
scalar scenarioPRJP1.node[70].wlan[0].mac 	rcvdPkFromLL:sum(packetBytes) 	50929164
attr interpolationmode  none
attr source  packetReceivedFromLower
attr title  "packets received from lower layer, sum(packetBytes)"
scalar scenarioPRJP1.node[70].wlan[0].mac 	sentDownPk:count 	42208
attr interpolationmode  none
attr source  packetSentToLower
attr title  "packets sent to lower layer, count"
scalar scenarioPRJP1.node[70].wlan[0].mac 	sentDownPk:sum(packetBytes) 	7994692
attr interpolationmode  none
attr source  packetSentToLower
attr title  "packets sent to lower layer, sum(packetBytes)"
scalar scenarioPRJP1.node[70].wlan[0].mac 	rcvdPkFromHL:count 	26376
attr interpolationmode  none
attr source  packetReceivedFromUpper
attr title  "packets received from higher layer, count"
scalar scenarioPRJP1.node[70].wlan[0].mac 	rcvdPkFromHL:sum(packetBytes) 	3250544
attr interpolationmode  none
attr source  packetReceivedFromUpper
attr title  "packets received from higher layer, sum(packetBytes)"
scalar scenarioPRJP1.node[70].wlan[0].mac 	passedUpPk:count 	115999
attr interpolationmode  none
attr source  packetSentToUpper
attr title  "packets passed to higher layer, count"
scalar scenarioPRJP1.node[70].wlan[0].mac 	passedUpPk:sum(packetBytes) 	10718684
attr interpolationmode  none
attr source  packetSentToUpper
attr title  "packets passed to higher layer, sum(packetBytes)"
statistic scenarioPRJP1.node[70].wlan[0].radio 	radioChannel:histogram
field count 1
field mean 3
field stddev -nan
field sum 3
field sqrsum 9
field min 3
field max 3
attr interpolationmode  sample-hold
attr source  radioChannelChanged
attr title  "Radio channel, histogram"
bin	-INF	0
bin	2	0
bin	3	1
bin	4	0
scalar scenarioPRJP1.node[70].wlan[0].radio 	transmissionState:count 	168832
attr interpolationmode  sample-hold
attr source  transmissionStateChanged
attr title  "Radio transmission state, count"
scalar scenarioPRJP1.node[70].wlan[0].radio 	receptionState:count 	656767
attr interpolationmode  sample-hold
attr source  receptionStateChanged
attr title  "Radio reception state, count"
scalar scenarioPRJP1.node[70].wlan[0].radio 	radioMode:count 	84418
attr interpolationmode  sample-hold
attr source  radioModeChanged
attr title  "Radio mode, count"
statistic scenarioPRJP1.node[70].wlan[0].radio 	symbolErrorRate:histogram
field count 0
field mean -nan
field stddev -nan
field sum 0
field sqrsum 0
field min -nan
field max -nan
attr source  symbolErrorRate
attr title  "Symbol error rate, histogram"
bin	-INF	0
bin	-0.5	0
bin	-0.46666666666667	0
bin	-0.43333333333333	0
bin	-0.4	0
bin	-0.36666666666667	0
bin	-0.33333333333333	0
bin	-0.3	0
bin	-0.26666666666667	0
bin	-0.23333333333333	0
bin	-0.2	0
bin	-0.16666666666667	0
bin	-0.13333333333333	0
bin	-0.1	0
bin	-0.066666666666667	0
bin	-0.033333333333333	0
bin	0	0
bin	0.033333333333333	0
bin	0.066666666666667	0
bin	0.1	0
bin	0.13333333333333	0
bin	0.16666666666667	0
bin	0.2	0
bin	0.23333333333333	0
bin	0.26666666666667	0
bin	0.3	0
bin	0.33333333333333	0
bin	0.36666666666667	0
bin	0.4	0
bin	0.43333333333333	0
bin	0.46666666666667	0
bin	0.5	0
statistic scenarioPRJP1.node[70].wlan[0].radio 	bitErrorRate:histogram
field count 0
field mean -nan
field stddev -nan
field sum 0
field sqrsum 0
field min -nan
field max -nan
attr source  bitErrorRate
attr title  "Bit error rate, histogram"
bin	-INF	0
bin	-0.5	0
bin	-0.46666666666667	0
bin	-0.43333333333333	0
bin	-0.4	0
bin	-0.36666666666667	0
bin	-0.33333333333333	0
bin	-0.3	0
bin	-0.26666666666667	0
bin	-0.23333333333333	0
bin	-0.2	0
bin	-0.16666666666667	0
bin	-0.13333333333333	0
bin	-0.1	0
bin	-0.066666666666667	0
bin	-0.033333333333333	0
bin	0	0
bin	0.033333333333333	0
bin	0.066666666666667	0
bin	0.1	0
bin	0.13333333333333	0
bin	0.16666666666667	0
bin	0.2	0
bin	0.23333333333333	0
bin	0.26666666666667	0
bin	0.3	0
bin	0.33333333333333	0
bin	0.36666666666667	0
bin	0.4	0
bin	0.43333333333333	0
bin	0.46666666666667	0
bin	0.5	0
statistic scenarioPRJP1.node[70].wlan[0].radio 	packetErrorRate:histogram
field count 276589
field mean 0.20978310853664
field stddev 0.39810080996735
field sum 58023.700207041
field sqrsum 56007.235291589
field min 0
field max 1
attr source  packetErrorRate
attr title  "Packet error rate, histogram"
bin	-INF	0
bin	-0.5	0
bin	-0.43333333333333	0
bin	-0.36666666666667	0
bin	-0.3	0
bin	-0.23333333333333	0
bin	-0.16666666666667	0
bin	-0.1	0
bin	-0.033333333333333	210244
bin	0.033333333333333	3390
bin	0.1	1664
bin	0.16666666666667	1168
bin	0.23333333333333	872
bin	0.3	719
bin	0.36666666666667	591
bin	0.43333333333333	586
bin	0.5	534
bin	0.56666666666667	477
bin	0.63333333333333	530
bin	0.7	572
bin	0.76666666666667	581
bin	0.83333333333333	741
bin	0.9	1032
bin	0.96666666666667	52888
bin	1.0333333333333	0
bin	1.1	0
bin	1.1666666666667	0
bin	1.2333333333333	0
bin	1.3	0
bin	1.3666666666667	0
bin	1.4333333333333	0
bin	1.5	0
statistic scenarioPRJP1.node[70].wlan[0].radio 	minSNIR:histogram
field count 276589
field mean 1975.4818367692
field stddev 19889.706074327
field sum 546396545.75017
field sqrsum 1.1049772202312e+14
field min 0.00010285800941448
field max 1595838.7488975
attr source  minSNIR
attr title  "Min SNIR, histogram"
bin	-INF	0
bin	-68.612499210988	0
bin	-59.460188698986	0
bin	-50.307878186985	0
bin	-41.155567674983	0
bin	-32.003257162982	0
bin	-22.850946650981	0
bin	-13.698636138979	0
bin	-4.5463256269777	87914
bin	4.6059848850237	48497
bin	13.758295397025	17434
bin	22.910605909026	9658
bin	32.062916421028	6426
bin	41.215226933029	4737
bin	50.367537445031	3757
bin	59.519847957032	3043
bin	68.672158469034	2489
bin	77.824468981035	2197
bin	86.976779493036	1922
bin	96.129090005038	1707
bin	105.28140051704	1511
bin	114.43371102904	1382
bin	123.58602154104	3251
bin	132.73833205304	3508
bin	141.89064256504	3068
bin	151.04295307705	2637
bin	160.19526358905	2394
bin	169.34757410105	2172
bin	178.49988461305	2028
bin	187.65219512505	1945
bin	196.80450563705	1649
bin	205.95681614905	61263
scalar scenarioPRJP1.node[70].lo0.lo 	droppedPkBitError:count 	0
attr interpolationmode  none
attr source  dropPkBitError
attr title  "packets dropped/bit error, count"
scalar scenarioPRJP1.node[70].lo0.lo 	droppedPkBitError:sum(packetBytes) 	0
attr interpolationmode  none
attr source  dropPkBitError
attr title  "packets dropped/bit error, sum(packetBytes)"
scalar scenarioPRJP1.node[70].lo0.lo 	rcvdPkFromHL:count 	7
attr interpolationmode  none
attr source  packetReceivedFromUpper
attr title  "packets received from higher layer, count"
scalar scenarioPRJP1.node[70].lo0.lo 	rcvdPkFromHL:sum(packetBytes) 	392
attr interpolationmode  none
attr source  packetReceivedFromUpper
attr title  "packets received from higher layer, sum(packetBytes)"
scalar scenarioPRJP1.node[70].lo0.lo 	passedUpPk:count 	7
attr interpolationmode  none
attr source  packetSentToUpper
attr title  "packets passed to higher layer, count"
scalar scenarioPRJP1.node[70].lo0.lo 	passedUpPk:sum(packetBytes) 	392
attr interpolationmode  none
attr source  packetSentToUpper
attr title  "packets passed to higher layer, sum(packetBytes)"
