version 2
run AODVRouting-TRG-10n-18-20150817-22:53:59-16724
attr configname AODVRouting-TRG-10n
attr datetime 20150817-22:53:59
attr experiment AODVRouting-TRG-10n
attr inifile omnetpp.ini
attr iterationvars ""
attr iterationvars2 $repetition=18
attr measurement ""
attr network Prj_Part1_propag.scenarioPRJP1
attr processid 16724
attr repetition 18
attr replication #18
attr resultdir results
attr runnumber 18
attr seedset 18

scalar scenarioPRJP1.radioMedium.propagation 	"Arrival computation count" 	478359
scalar scenarioPRJP1.radioMedium 	"transmission count" 	53151
scalar scenarioPRJP1.radioMedium 	"radio frame send count" 	478359
scalar scenarioPRJP1.radioMedium 	"reception computation count" 	477868
scalar scenarioPRJP1.radioMedium 	"interference computation count" 	1475167
scalar scenarioPRJP1.radioMedium 	"reception decision computation count" 	70871
scalar scenarioPRJP1.radioMedium 	"listening decision computation count" 	928611
scalar scenarioPRJP1.radioMedium 	"reception cache hit" 	70.674308998969
attr unit  %
scalar scenarioPRJP1.radioMedium 	"interference cache hit" 	50
attr unit  %
scalar scenarioPRJP1.radioMedium 	"noise cache hit" 	0
attr unit  %
scalar scenarioPRJP1.radioMedium 	"snir cache hit" 	0
attr unit  %
scalar scenarioPRJP1.radioMedium 	"reception decision cache hit" 	0
attr unit  %
scalar scenarioPRJP1.node[0].app 	"Total sent" 	2607
scalar scenarioPRJP1.node[0].app 	"Total received" 	48
scalar scenarioPRJP1.node[0].app 	"Total deleted" 	0
scalar scenarioPRJP1.node[0].app 	dropPk:count 	0
attr interpolationmode  none
attr source  dropPk
attr title  "packets dropped, count"
scalar scenarioPRJP1.node[0].app 	dropPk:sum(packetBytes) 	0
attr interpolationmode  none
attr source  dropPk
attr title  "packets dropped, sum(packetBytes)"
scalar scenarioPRJP1.node[0].app 	outOfOrderPk:count 	51
attr interpolationmode  none
attr source  outOfOrderPk
attr title  "packets received out of order, count"
scalar scenarioPRJP1.node[0].app 	outOfOrderPk:sum(packetBytes) 	26112
attr interpolationmode  none
attr source  outOfOrderPk
attr title  "packets received out of order, sum(packetBytes)"
scalar scenarioPRJP1.node[0].app 	rcvdPk:count 	48
attr interpolationmode  none
attr source  rcvdPk
attr title  "packets received, count"
scalar scenarioPRJP1.node[0].app 	rcvdPk:sum(packetBytes) 	24576
attr interpolationmode  none
attr source  rcvdPk
attr title  "packets received, sum(packetBytes)"
statistic scenarioPRJP1.node[0].app 	endToEndDelay:histogram
field count 48
field mean 2.1626357192194
field stddev 4.547931899162
field sum 103.80651452253
field sqrsum 1196.6288504866
field min 0.000945317911
field max 16.64667769571
attr interpolationmode  none
attr source  messageAge(rcvdPk)
attr title  "delay, histogram"
attr unit  s
bin	-INF	0
bin	-8.3219208709885	0
bin	-7.2122053791352	0
bin	-6.102489887282	0
bin	-4.9927743954287	0
bin	-3.8830589035754	0
bin	-2.7733434117222	0
bin	-1.6636279198689	0
bin	-0.55391242801563	38
bin	0.55580306383763	0
bin	1.6655185556909	0
bin	2.7752340475442	0
bin	3.8849495393974	1
bin	4.9946650312507	0
bin	6.104380523104	1
bin	7.2140960149572	1
bin	8.3238115068105	0
bin	9.4335269986638	2
bin	10.543242490517	2
bin	11.65295798237	0
bin	12.762673474224	2
bin	13.872388966077	0
bin	14.98210445793	0
bin	16.091819949783	1
bin	17.201535441637	0
bin	18.31125093349	0
bin	19.420966425343	0
bin	20.530681917196	0
bin	21.64039740905	0
bin	22.750112900903	0
bin	23.859828392756	0
bin	24.96954388461	0
scalar scenarioPRJP1.node[0].app 	sentPk:count 	2607
attr interpolationmode  none
attr source  sentPk
attr title  "packets sent, count"
scalar scenarioPRJP1.node[0].app 	sentPk:sum(packetBytes) 	1334784
attr interpolationmode  none
attr source  sentPk
attr title  "packets sent, sum(packetBytes)"
scalar scenarioPRJP1.node[0].udp 	droppedPkBadChecksum:count 	0
attr interpolationmode  none
attr title  "packets dropped (checksum error), count"
scalar scenarioPRJP1.node[0].udp 	droppedPkWrongPort:count 	0
attr interpolationmode  none
attr title  "packets dropped (wrong port), count"
scalar scenarioPRJP1.node[0].udp 	passedUpPk:count 	99
attr interpolationmode  none
attr title  "packets passed up, count"
scalar scenarioPRJP1.node[0].udp 	rcvdPk:count 	99
attr interpolationmode  none
attr source  rcvdPk
attr title  "packets received, count"
scalar scenarioPRJP1.node[0].udp 	rcvdPk:sum(packetBytes) 	51480
attr interpolationmode  none
attr source  rcvdPk
attr title  "packets received, sum(packetBytes)"
scalar scenarioPRJP1.node[0].udp 	sentPk:count 	2607
attr interpolationmode  none
attr source  sentPk
attr title  "packets sent, count"
scalar scenarioPRJP1.node[0].udp 	sentPk:sum(packetBytes) 	1355640
attr interpolationmode  none
attr source  sentPk
attr title  "packets sent, sum(packetBytes)"
scalar scenarioPRJP1.node[0].networkLayer.arp 	failedARPResolution:count 	0
attr title  "ARP failed resolutions, count"
scalar scenarioPRJP1.node[0].networkLayer.arp 	completedARPResolution:count 	10
attr title  "ARP completed resolutions, count"
scalar scenarioPRJP1.node[0].networkLayer.arp 	initiatedARPResolution:count 	6
attr title  "ARP initiated resolutions, count"
scalar scenarioPRJP1.node[0].networkLayer.arp 	sentReply:count 	4
attr title  "ARP replies sent, count"
scalar scenarioPRJP1.node[0].networkLayer.arp 	sentReq:count 	6
attr title  "ARP request sent, count"
scalar scenarioPRJP1.node[0].mobility 	startTime 	0.1
scalar scenarioPRJP1.node[0].mobility 	totalTime 	949.9
scalar scenarioPRJP1.node[0].mobility 	stopTime 	950
scalar scenarioPRJP1.node[0].mobility 	minSpeed 	2.4757857213929e-13
scalar scenarioPRJP1.node[0].mobility 	maxSpeed 	20.385222341255
scalar scenarioPRJP1.node[0].mobility 	totalDistance 	9966.0195114962
scalar scenarioPRJP1.node[0].mobility 	totalCO2Emission 	2713.1589889269
scalar scenarioPRJP1.node[0].wlan[0].mgmt 	dataQueueLen:max 	51
attr interpolationmode  sample-hold
attr title  "data queue length, max"
scalar scenarioPRJP1.node[0].wlan[0].mgmt 	dataQueueLen:timeavg 	3.7470115431098e-05
attr interpolationmode  sample-hold
attr title  "data queue length, timeavg"
scalar scenarioPRJP1.node[0].wlan[0].mgmt 	dropPkByQueue:count 	0
attr interpolationmode  none
attr source  dropPkByQueue
attr title  "packets dropped by queue, count"
scalar scenarioPRJP1.node[0].wlan[0].mgmt 	dropPkByQueue:sum(packetBytes) 	0
attr interpolationmode  none
attr source  dropPkByQueue
attr title  "packets dropped by queue, sum(packetBytes)"
scalar scenarioPRJP1.node[0].wlan[0].mac 	"number of received packets" 	506
scalar scenarioPRJP1.node[0].wlan[0].mac 	"number of collisions" 	0
scalar scenarioPRJP1.node[0].wlan[0].mac 	"number of internal collisions" 	0
scalar scenarioPRJP1.node[0].wlan[0].mac 	"number of retry for AC 0" 	426
scalar scenarioPRJP1.node[0].wlan[0].mac 	"number of retry for AC 1" 	0
scalar scenarioPRJP1.node[0].wlan[0].mac 	"number of retry for AC 2" 	0
scalar scenarioPRJP1.node[0].wlan[0].mac 	"number of retry for AC 3" 	0
scalar scenarioPRJP1.node[0].wlan[0].mac 	"sent and received bits" 	734208
scalar scenarioPRJP1.node[0].wlan[0].mac 	"sent packet within AC 0" 	44
scalar scenarioPRJP1.node[0].wlan[0].mac 	"sent packet within AC 1" 	0
scalar scenarioPRJP1.node[0].wlan[0].mac 	"sent packet within AC 2" 	0
scalar scenarioPRJP1.node[0].wlan[0].mac 	"sent packet within AC 3" 	0
scalar scenarioPRJP1.node[0].wlan[0].mac 	"sent in TXOP " 	0
scalar scenarioPRJP1.node[0].wlan[0].mac 	"sentWithoutRetry AC 0" 	44
scalar scenarioPRJP1.node[0].wlan[0].mac 	"sentWithoutRetry AC 1" 	0
scalar scenarioPRJP1.node[0].wlan[0].mac 	"sentWithoutRetry AC 2" 	0
scalar scenarioPRJP1.node[0].wlan[0].mac 	"sentWithoutRetry AC 3" 	0
scalar scenarioPRJP1.node[0].wlan[0].mac 	"numGivenUp AC 0" 	71
scalar scenarioPRJP1.node[0].wlan[0].mac 	"numGivenUp AC 1" 	0
scalar scenarioPRJP1.node[0].wlan[0].mac 	"numGivenUp AC 2" 	0
scalar scenarioPRJP1.node[0].wlan[0].mac 	"numGivenUp AC 3" 	0
scalar scenarioPRJP1.node[0].wlan[0].mac 	"numDropped AC 0" 	5
scalar scenarioPRJP1.node[0].wlan[0].mac 	"numDropped AC 1" 	0
scalar scenarioPRJP1.node[0].wlan[0].mac 	"numDropped AC 2" 	0
scalar scenarioPRJP1.node[0].wlan[0].mac 	"numDropped AC 3" 	0
scalar scenarioPRJP1.node[0].wlan[0].mac 	rcvdPkFromLL:count 	1380
attr interpolationmode  none
attr source  packetReceivedFromLower
attr title  "packets received from lower layer, count"
scalar scenarioPRJP1.node[0].wlan[0].mac 	rcvdPkFromLL:sum(packetBytes) 	327112
attr interpolationmode  none
attr source  packetReceivedFromLower
attr title  "packets received from lower layer, sum(packetBytes)"
scalar scenarioPRJP1.node[0].wlan[0].mac 	sentDownPk:count 	1811
attr interpolationmode  none
attr source  packetSentToLower
attr title  "packets sent to lower layer, count"
scalar scenarioPRJP1.node[0].wlan[0].mac 	sentDownPk:sum(packetBytes) 	367352
attr interpolationmode  none
attr source  packetSentToLower
attr title  "packets sent to lower layer, sum(packetBytes)"
scalar scenarioPRJP1.node[0].wlan[0].mac 	rcvdPkFromHL:count 	884
attr interpolationmode  none
attr source  packetReceivedFromUpper
attr title  "packets received from higher layer, count"
scalar scenarioPRJP1.node[0].wlan[0].mac 	rcvdPkFromHL:sum(packetBytes) 	131544
attr interpolationmode  none
attr source  packetReceivedFromUpper
attr title  "packets received from higher layer, sum(packetBytes)"
scalar scenarioPRJP1.node[0].wlan[0].mac 	passedUpPk:count 	397
attr interpolationmode  none
attr source  packetSentToUpper
attr title  "packets passed to higher layer, count"
scalar scenarioPRJP1.node[0].wlan[0].mac 	passedUpPk:sum(packetBytes) 	82796
attr interpolationmode  none
attr source  packetSentToUpper
attr title  "packets passed to higher layer, sum(packetBytes)"
statistic scenarioPRJP1.node[0].wlan[0].radio 	radioChannel:histogram
field count 1
field mean 3
field stddev -nan
field sum 3
field sqrsum 9
field min 3
field max 3
attr interpolationmode  sample-hold
attr source  radioChannelChanged
attr title  "Radio channel, histogram"
bin	-INF	0
bin	2	0
bin	3	1
bin	4	0
scalar scenarioPRJP1.node[0].wlan[0].radio 	transmissionState:count 	7244
attr interpolationmode  sample-hold
attr source  transmissionStateChanged
attr title  "Radio transmission state, count"
scalar scenarioPRJP1.node[0].wlan[0].radio 	receptionState:count 	6384
attr interpolationmode  sample-hold
attr source  receptionStateChanged
attr title  "Radio reception state, count"
scalar scenarioPRJP1.node[0].wlan[0].radio 	radioMode:count 	3624
attr interpolationmode  sample-hold
attr source  radioModeChanged
attr title  "Radio mode, count"
statistic scenarioPRJP1.node[0].wlan[0].radio 	symbolErrorRate:histogram
field count 0
field mean -nan
field stddev -nan
field sum 0
field sqrsum 0
field min -nan
field max -nan
attr source  symbolErrorRate
attr title  "Symbol error rate, histogram"
bin	-INF	0
bin	-0.5	0
bin	-0.46666666666667	0
bin	-0.43333333333333	0
bin	-0.4	0
bin	-0.36666666666667	0
bin	-0.33333333333333	0
bin	-0.3	0
bin	-0.26666666666667	0
bin	-0.23333333333333	0
bin	-0.2	0
bin	-0.16666666666667	0
bin	-0.13333333333333	0
bin	-0.1	0
bin	-0.066666666666667	0
bin	-0.033333333333333	0
bin	0	0
bin	0.033333333333333	0
bin	0.066666666666667	0
bin	0.1	0
bin	0.13333333333333	0
bin	0.16666666666667	0
bin	0.2	0
bin	0.23333333333333	0
bin	0.26666666666667	0
bin	0.3	0
bin	0.33333333333333	0
bin	0.36666666666667	0
bin	0.4	0
bin	0.43333333333333	0
bin	0.46666666666667	0
bin	0.5	0
statistic scenarioPRJP1.node[0].wlan[0].radio 	bitErrorRate:histogram
field count 0
field mean -nan
field stddev -nan
field sum 0
field sqrsum 0
field min -nan
field max -nan
attr source  bitErrorRate
attr title  "Bit error rate, histogram"
bin	-INF	0
bin	-0.5	0
bin	-0.46666666666667	0
bin	-0.43333333333333	0
bin	-0.4	0
bin	-0.36666666666667	0
bin	-0.33333333333333	0
bin	-0.3	0
bin	-0.26666666666667	0
bin	-0.23333333333333	0
bin	-0.2	0
bin	-0.16666666666667	0
bin	-0.13333333333333	0
bin	-0.1	0
bin	-0.066666666666667	0
bin	-0.033333333333333	0
bin	0	0
bin	0.033333333333333	0
bin	0.066666666666667	0
bin	0.1	0
bin	0.13333333333333	0
bin	0.16666666666667	0
bin	0.2	0
bin	0.23333333333333	0
bin	0.26666666666667	0
bin	0.3	0
bin	0.33333333333333	0
bin	0.36666666666667	0
bin	0.4	0
bin	0.43333333333333	0
bin	0.46666666666667	0
bin	0.5	0
statistic scenarioPRJP1.node[0].wlan[0].radio 	packetErrorRate:histogram
field count 1380
field mean 2.281085949881e-07
field stddev 8.4621114425163e-06
field sum 0.00031478986108358
field sqrsum 9.8818314433343e-08
field min 0
field max 0.00031435359969689
attr source  packetErrorRate
attr title  "Packet error rate, histogram"
bin	-INF	0
bin	-1.7792995776755e-07	0
bin	-1.5420596339855e-07	0
bin	-1.3048196902954e-07	0
bin	-1.0675797466053e-07	0
bin	-8.3033980291525e-08	0
bin	-5.9309985922518e-08	0
bin	-3.5585991553511e-08	0
bin	-1.1861997184504e-08	1375
bin	1.1861997184504e-08	3
bin	3.5585991553511e-08	0
bin	5.9309985922518e-08	0
bin	8.3033980291525e-08	0
bin	1.0675797466053e-07	0
bin	1.3048196902954e-07	0
bin	1.5420596339855e-07	0
bin	1.7792995776755e-07	0
bin	2.0165395213656e-07	0
bin	2.2537794650557e-07	0
bin	2.4910194087457e-07	0
bin	2.7282593524358e-07	0
bin	2.9654992961259e-07	0
bin	3.202739239816e-07	0
bin	3.439979183506e-07	1
bin	3.6772191271961e-07	0
bin	3.9144590708862e-07	0
bin	4.1516990145762e-07	0
bin	4.3889389582663e-07	0
bin	4.6261789019564e-07	0
bin	4.8634188456464e-07	0
bin	5.1006587893365e-07	0
bin	5.3378987330266e-07	1
statistic scenarioPRJP1.node[0].wlan[0].radio 	minSNIR:histogram
field count 1380
field mean 1415.9052834239
field stddev 5528.2652250506
field sum 1953949.291125
field sqrsum 44911214038.382
field min 2.9877621370157
field max 79507.329199845
attr source  minSNIR
attr title  "Min SNIR, histogram"
bin	-INF	0
bin	-90.848235636753	0
bin	-78.177449282628	0
bin	-65.506662928503	0
bin	-52.835876574378	0
bin	-40.165090220253	0
bin	-27.494303866129	0
bin	-14.823517512004	0
bin	-2.1527311578789	10
bin	10.518055196246	5
bin	23.188841550371	0
bin	35.859627904496	3
bin	48.53041425862	1
bin	61.201200612745	5
bin	73.87198696687	5
bin	86.542773320995	5
bin	99.21355967512	6
bin	111.88434602924	4
bin	124.55513238337	32
bin	137.22591873749	60
bin	149.89670509162	143
bin	162.56749144574	189
bin	175.23827779987	142
bin	187.90906415399	64
bin	200.57985050812	123
bin	213.25063686224	108
bin	225.92142321637	78
bin	238.59220957049	76
bin	251.26299592462	29
bin	263.93378227874	10
bin	276.60456863287	8
bin	289.27535498699	274
scalar scenarioPRJP1.node[0].lo0.lo 	droppedPkBitError:count 	0
attr interpolationmode  none
attr source  dropPkBitError
attr title  "packets dropped/bit error, count"
scalar scenarioPRJP1.node[0].lo0.lo 	droppedPkBitError:sum(packetBytes) 	0
attr interpolationmode  none
attr source  dropPkBitError
attr title  "packets dropped/bit error, sum(packetBytes)"
scalar scenarioPRJP1.node[0].lo0.lo 	rcvdPkFromHL:count 	0
attr interpolationmode  none
attr source  packetReceivedFromUpper
attr title  "packets received from higher layer, count"
scalar scenarioPRJP1.node[0].lo0.lo 	rcvdPkFromHL:sum(packetBytes) 	0
attr interpolationmode  none
attr source  packetReceivedFromUpper
attr title  "packets received from higher layer, sum(packetBytes)"
scalar scenarioPRJP1.node[0].lo0.lo 	passedUpPk:count 	0
attr interpolationmode  none
attr source  packetSentToUpper
attr title  "packets passed to higher layer, count"
scalar scenarioPRJP1.node[0].lo0.lo 	passedUpPk:sum(packetBytes) 	0
attr interpolationmode  none
attr source  packetSentToUpper
attr title  "packets passed to higher layer, sum(packetBytes)"
scalar scenarioPRJP1.node[5].app 	"Total sent" 	2608
scalar scenarioPRJP1.node[5].app 	"Total received" 	102
scalar scenarioPRJP1.node[5].app 	"Total deleted" 	285
scalar scenarioPRJP1.node[5].app 	dropPk:count 	285
attr interpolationmode  none
attr source  dropPk
attr title  "packets dropped, count"
scalar scenarioPRJP1.node[5].app 	dropPk:sum(packetBytes) 	145920
attr interpolationmode  none
attr source  dropPk
attr title  "packets dropped, sum(packetBytes)"
scalar scenarioPRJP1.node[5].app 	outOfOrderPk:count 	203
attr interpolationmode  none
attr source  outOfOrderPk
attr title  "packets received out of order, count"
scalar scenarioPRJP1.node[5].app 	outOfOrderPk:sum(packetBytes) 	103936
attr interpolationmode  none
attr source  outOfOrderPk
attr title  "packets received out of order, sum(packetBytes)"
scalar scenarioPRJP1.node[5].app 	rcvdPk:count 	102
attr interpolationmode  none
attr source  rcvdPk
attr title  "packets received, count"
scalar scenarioPRJP1.node[5].app 	rcvdPk:sum(packetBytes) 	52224
attr interpolationmode  none
attr source  rcvdPk
attr title  "packets received, sum(packetBytes)"
statistic scenarioPRJP1.node[5].app 	endToEndDelay:histogram
field count 102
field mean 4.8558733021512
field stddev 5.9927862579865
field sum 495.29907681942
field sqrsum 6032.3717642326
field min 0.000945065568
field max 19.650401840496
attr interpolationmode  none
attr source  messageAge(rcvdPk)
attr title  "delay, histogram"
attr unit  s
bin	-INF	0
bin	-9.823783321896	0
bin	-8.5138195369008	0
bin	-7.2038557519056	0
bin	-5.8938919669104	0
bin	-4.5839281819152	0
bin	-3.27396439692	0
bin	-1.9640006119248	0
bin	-0.6540368269296	49
bin	0.6559269580656	3
bin	1.9658907430608	6
bin	3.275854528056	3
bin	4.5858183130512	6
bin	5.8957820980464	1
bin	7.2057458830416	4
bin	8.5157096680368	6
bin	9.825673453032	4
bin	11.135637238027	4
bin	12.445601023022	5
bin	13.755564808018	3
bin	15.065528593013	2
bin	16.375492378008	2
bin	17.685456163003	3
bin	18.995419947998	1
bin	20.305383732994	0
bin	21.615347517989	0
bin	22.925311302984	0
bin	24.235275087979	0
bin	25.545238872974	0
bin	26.85520265797	0
bin	28.165166442965	0
bin	29.47513022796	0
scalar scenarioPRJP1.node[5].app 	sentPk:count 	2608
attr interpolationmode  none
attr source  sentPk
attr title  "packets sent, count"
scalar scenarioPRJP1.node[5].app 	sentPk:sum(packetBytes) 	1335296
attr interpolationmode  none
attr source  sentPk
attr title  "packets sent, sum(packetBytes)"
scalar scenarioPRJP1.node[5].udp 	droppedPkBadChecksum:count 	0
attr interpolationmode  none
attr title  "packets dropped (checksum error), count"
scalar scenarioPRJP1.node[5].udp 	droppedPkWrongPort:count 	0
attr interpolationmode  none
attr title  "packets dropped (wrong port), count"
scalar scenarioPRJP1.node[5].udp 	passedUpPk:count 	590
attr interpolationmode  none
attr title  "packets passed up, count"
scalar scenarioPRJP1.node[5].udp 	rcvdPk:count 	590
attr interpolationmode  none
attr source  rcvdPk
attr title  "packets received, count"
scalar scenarioPRJP1.node[5].udp 	rcvdPk:sum(packetBytes) 	306800
attr interpolationmode  none
attr source  rcvdPk
attr title  "packets received, sum(packetBytes)"
scalar scenarioPRJP1.node[5].udp 	sentPk:count 	2608
attr interpolationmode  none
attr source  sentPk
attr title  "packets sent, count"
scalar scenarioPRJP1.node[5].udp 	sentPk:sum(packetBytes) 	1356160
attr interpolationmode  none
attr source  sentPk
attr title  "packets sent, sum(packetBytes)"
scalar scenarioPRJP1.node[5].networkLayer.arp 	failedARPResolution:count 	0
attr title  "ARP failed resolutions, count"
scalar scenarioPRJP1.node[5].networkLayer.arp 	completedARPResolution:count 	23
attr title  "ARP completed resolutions, count"
scalar scenarioPRJP1.node[5].networkLayer.arp 	initiatedARPResolution:count 	12
attr title  "ARP initiated resolutions, count"
scalar scenarioPRJP1.node[5].networkLayer.arp 	sentReply:count 	5
attr title  "ARP replies sent, count"
scalar scenarioPRJP1.node[5].networkLayer.arp 	sentReq:count 	12
attr title  "ARP request sent, count"
scalar scenarioPRJP1.node[5].mobility 	startTime 	2.5
scalar scenarioPRJP1.node[5].mobility 	totalTime 	947.5
scalar scenarioPRJP1.node[5].mobility 	stopTime 	950
scalar scenarioPRJP1.node[5].mobility 	minSpeed 	2.4755434353595e-13
scalar scenarioPRJP1.node[5].mobility 	maxSpeed 	21.059895940557
scalar scenarioPRJP1.node[5].mobility 	totalDistance 	10022.545483231
scalar scenarioPRJP1.node[5].mobility 	totalCO2Emission 	2844.5890265572
scalar scenarioPRJP1.node[5].wlan[0].mgmt 	dataQueueLen:max 	100
attr interpolationmode  sample-hold
attr title  "data queue length, max"
scalar scenarioPRJP1.node[5].wlan[0].mgmt 	dataQueueLen:timeavg 	0.018038119900541
attr interpolationmode  sample-hold
attr title  "data queue length, timeavg"
scalar scenarioPRJP1.node[5].wlan[0].mgmt 	dropPkByQueue:count 	32
attr interpolationmode  none
attr source  dropPkByQueue
attr title  "packets dropped by queue, count"
scalar scenarioPRJP1.node[5].wlan[0].mgmt 	dropPkByQueue:sum(packetBytes) 	18432
attr interpolationmode  none
attr source  dropPkByQueue
attr title  "packets dropped by queue, sum(packetBytes)"
scalar scenarioPRJP1.node[5].wlan[0].mac 	"number of received packets" 	2998
scalar scenarioPRJP1.node[5].wlan[0].mac 	"number of collisions" 	19
scalar scenarioPRJP1.node[5].wlan[0].mac 	"number of internal collisions" 	0
scalar scenarioPRJP1.node[5].wlan[0].mac 	"number of retry for AC 0" 	3012
scalar scenarioPRJP1.node[5].wlan[0].mac 	"number of retry for AC 1" 	0
scalar scenarioPRJP1.node[5].wlan[0].mac 	"number of retry for AC 2" 	0
scalar scenarioPRJP1.node[5].wlan[0].mac 	"number of retry for AC 3" 	0
scalar scenarioPRJP1.node[5].wlan[0].mac 	"sent and received bits" 	2293312
scalar scenarioPRJP1.node[5].wlan[0].mac 	"sent packet within AC 0" 	267
scalar scenarioPRJP1.node[5].wlan[0].mac 	"sent packet within AC 1" 	0
scalar scenarioPRJP1.node[5].wlan[0].mac 	"sent packet within AC 2" 	0
scalar scenarioPRJP1.node[5].wlan[0].mac 	"sent packet within AC 3" 	0
scalar scenarioPRJP1.node[5].wlan[0].mac 	"sent in TXOP " 	0
scalar scenarioPRJP1.node[5].wlan[0].mac 	"sentWithoutRetry AC 0" 	267
scalar scenarioPRJP1.node[5].wlan[0].mac 	"sentWithoutRetry AC 1" 	0
scalar scenarioPRJP1.node[5].wlan[0].mac 	"sentWithoutRetry AC 2" 	0
scalar scenarioPRJP1.node[5].wlan[0].mac 	"sentWithoutRetry AC 3" 	0
scalar scenarioPRJP1.node[5].wlan[0].mac 	"numGivenUp AC 0" 	502
scalar scenarioPRJP1.node[5].wlan[0].mac 	"numGivenUp AC 1" 	0
scalar scenarioPRJP1.node[5].wlan[0].mac 	"numGivenUp AC 2" 	0
scalar scenarioPRJP1.node[5].wlan[0].mac 	"numGivenUp AC 3" 	0
scalar scenarioPRJP1.node[5].wlan[0].mac 	"numDropped AC 0" 	103
scalar scenarioPRJP1.node[5].wlan[0].mac 	"numDropped AC 1" 	0
scalar scenarioPRJP1.node[5].wlan[0].mac 	"numDropped AC 2" 	0
scalar scenarioPRJP1.node[5].wlan[0].mac 	"numDropped AC 3" 	0
scalar scenarioPRJP1.node[5].wlan[0].mac 	rcvdPkFromLL:count 	10356
attr interpolationmode  none
attr source  packetReceivedFromLower
attr title  "packets received from lower layer, count"
scalar scenarioPRJP1.node[5].wlan[0].mac 	rcvdPkFromLL:sum(packetBytes) 	2706880
attr interpolationmode  none
attr source  packetReceivedFromLower
attr title  "packets received from lower layer, sum(packetBytes)"
scalar scenarioPRJP1.node[5].wlan[0].mac 	sentDownPk:count 	8352
attr interpolationmode  none
attr source  packetSentToLower
attr title  "packets sent to lower layer, count"
scalar scenarioPRJP1.node[5].wlan[0].mac 	sentDownPk:sum(packetBytes) 	2307368
attr interpolationmode  none
attr source  packetSentToLower
attr title  "packets sent to lower layer, sum(packetBytes)"
scalar scenarioPRJP1.node[5].wlan[0].mac 	rcvdPkFromHL:count 	2445
attr interpolationmode  none
attr source  packetReceivedFromUpper
attr title  "packets received from higher layer, count"
scalar scenarioPRJP1.node[5].wlan[0].mac 	rcvdPkFromHL:sum(packetBytes) 	619416
attr interpolationmode  none
attr source  packetReceivedFromUpper
attr title  "packets received from higher layer, sum(packetBytes)"
scalar scenarioPRJP1.node[5].wlan[0].mac 	passedUpPk:count 	1865
attr interpolationmode  none
attr source  packetSentToUpper
attr title  "packets passed to higher layer, count"
scalar scenarioPRJP1.node[5].wlan[0].mac 	passedUpPk:sum(packetBytes) 	488164
attr interpolationmode  none
attr source  packetSentToUpper
attr title  "packets passed to higher layer, sum(packetBytes)"
statistic scenarioPRJP1.node[5].wlan[0].radio 	radioChannel:histogram
field count 1
field mean 3
field stddev -nan
field sum 3
field sqrsum 9
field min 3
field max 3
attr interpolationmode  sample-hold
attr source  radioChannelChanged
attr title  "Radio channel, histogram"
bin	-INF	0
bin	2	0
bin	3	1
bin	4	0
scalar scenarioPRJP1.node[5].wlan[0].radio 	transmissionState:count 	33408
attr interpolationmode  sample-hold
attr source  transmissionStateChanged
attr title  "Radio transmission state, count"
scalar scenarioPRJP1.node[5].wlan[0].radio 	receptionState:count 	37421
attr interpolationmode  sample-hold
attr source  receptionStateChanged
attr title  "Radio reception state, count"
scalar scenarioPRJP1.node[5].wlan[0].radio 	radioMode:count 	16706
attr interpolationmode  sample-hold
attr source  radioModeChanged
attr title  "Radio mode, count"
statistic scenarioPRJP1.node[5].wlan[0].radio 	symbolErrorRate:histogram
field count 0
field mean -nan
field stddev -nan
field sum 0
field sqrsum 0
field min -nan
field max -nan
attr source  symbolErrorRate
attr title  "Symbol error rate, histogram"
bin	-INF	0
bin	-0.5	0
bin	-0.46666666666667	0
bin	-0.43333333333333	0
bin	-0.4	0
bin	-0.36666666666667	0
bin	-0.33333333333333	0
bin	-0.3	0
bin	-0.26666666666667	0
bin	-0.23333333333333	0
bin	-0.2	0
bin	-0.16666666666667	0
bin	-0.13333333333333	0
bin	-0.1	0
bin	-0.066666666666667	0
bin	-0.033333333333333	0
bin	0	0
bin	0.033333333333333	0
bin	0.066666666666667	0
bin	0.1	0
bin	0.13333333333333	0
bin	0.16666666666667	0
bin	0.2	0
bin	0.23333333333333	0
bin	0.26666666666667	0
bin	0.3	0
bin	0.33333333333333	0
bin	0.36666666666667	0
bin	0.4	0
bin	0.43333333333333	0
bin	0.46666666666667	0
bin	0.5	0
statistic scenarioPRJP1.node[5].wlan[0].radio 	bitErrorRate:histogram
field count 0
field mean -nan
field stddev -nan
field sum 0
field sqrsum 0
field min -nan
field max -nan
attr source  bitErrorRate
attr title  "Bit error rate, histogram"
bin	-INF	0
bin	-0.5	0
bin	-0.46666666666667	0
bin	-0.43333333333333	0
bin	-0.4	0
bin	-0.36666666666667	0
bin	-0.33333333333333	0
bin	-0.3	0
bin	-0.26666666666667	0
bin	-0.23333333333333	0
bin	-0.2	0
bin	-0.16666666666667	0
bin	-0.13333333333333	0
bin	-0.1	0
bin	-0.066666666666667	0
bin	-0.033333333333333	0
bin	0	0
bin	0.033333333333333	0
bin	0.066666666666667	0
bin	0.1	0
bin	0.13333333333333	0
bin	0.16666666666667	0
bin	0.2	0
bin	0.23333333333333	0
bin	0.26666666666667	0
bin	0.3	0
bin	0.33333333333333	0
bin	0.36666666666667	0
bin	0.4	0
bin	0.43333333333333	0
bin	0.46666666666667	0
bin	0.5	0
statistic scenarioPRJP1.node[5].wlan[0].radio 	packetErrorRate:histogram
field count 10356
field mean 0.0014164437433534
field stddev 0.036296653628301
field sum 14.668691406168
field sqrsum 13.662941730232
field min 0
field max 1
attr source  packetErrorRate
attr title  "Packet error rate, histogram"
bin	-INF	0
bin	-0.49905775652226	0
bin	-0.43251672231929	0
bin	-0.36597568811632	0
bin	-0.29943465391335	0
bin	-0.23289361971039	0
bin	-0.16635258550742	0
bin	-0.099811551304452	0
bin	-0.033270517101484	10336
bin	0.033270517101484	2
bin	0.099811551304452	3
bin	0.16635258550742	0
bin	0.23289361971039	1
bin	0.29943465391335	0
bin	0.36597568811632	0
bin	0.43251672231929	0
bin	0.49905775652226	0
bin	0.56559879072523	0
bin	0.63213982492819	0
bin	0.69868085913116	1
bin	0.76522189333413	0
bin	0.8317629275371	0
bin	0.89830396174006	0
bin	0.96484499594303	13
bin	1.031386030146	0
bin	1.097927064349	0
bin	1.1644680985519	0
bin	1.2310091327549	0
bin	1.2975501669579	0
bin	1.3640912011608	0
bin	1.4306322353638	0
bin	1.4971732695668	0
statistic scenarioPRJP1.node[5].wlan[0].radio 	minSNIR:histogram
field count 10356
field mean 2892.2096925381
field stddev 11724.704881052
field sum 29951723.575925
field sqrsum 1510115100826.6
field min 0.78490440296994
field max 284176.95783243
attr source  minSNIR
attr title  "Min SNIR, histogram"
bin	-INF	0
bin	-102.4790640677	0
bin	-88.49397603339	0
bin	-74.508887999078	0
bin	-60.523799964766	0
bin	-46.538711930453	0
bin	-32.553623896141	0
bin	-18.568535861829	0
bin	-4.5834478275167	165
bin	9.4016402067956	15
bin	23.386728241108	25
bin	37.37181627542	13
bin	51.356904309732	13
bin	65.341992344045	26
bin	79.327080378357	59
bin	93.312168412669	8
bin	107.29725644698	10
bin	121.28234448129	906
bin	135.26743251561	1119
bin	149.25252054992	806
bin	163.23760858423	661
bin	177.22269661854	813
bin	191.20778465286	530
bin	205.19287268717	635
bin	219.17796072148	295
bin	233.16304875579	282
bin	247.1481367901	293
bin	261.13322482442	318
bin	275.11831285873	290
bin	289.10340089304	250
bin	303.08848892735	218
bin	317.07357696167	2606
scalar scenarioPRJP1.node[5].lo0.lo 	droppedPkBitError:count 	0
attr interpolationmode  none
attr source  dropPkBitError
attr title  "packets dropped/bit error, count"
scalar scenarioPRJP1.node[5].lo0.lo 	droppedPkBitError:sum(packetBytes) 	0
attr interpolationmode  none
attr source  dropPkBitError
attr title  "packets dropped/bit error, sum(packetBytes)"
scalar scenarioPRJP1.node[5].lo0.lo 	rcvdPkFromHL:count 	0
attr interpolationmode  none
attr source  packetReceivedFromUpper
attr title  "packets received from higher layer, count"
scalar scenarioPRJP1.node[5].lo0.lo 	rcvdPkFromHL:sum(packetBytes) 	0
attr interpolationmode  none
attr source  packetReceivedFromUpper
attr title  "packets received from higher layer, sum(packetBytes)"
scalar scenarioPRJP1.node[5].lo0.lo 	passedUpPk:count 	0
attr interpolationmode  none
attr source  packetSentToUpper
attr title  "packets passed to higher layer, count"
scalar scenarioPRJP1.node[5].lo0.lo 	passedUpPk:sum(packetBytes) 	0
attr interpolationmode  none
attr source  packetSentToUpper
attr title  "packets passed to higher layer, sum(packetBytes)"
scalar scenarioPRJP1.node[1].app 	"Total sent" 	2604
scalar scenarioPRJP1.node[1].app 	"Total received" 	264
scalar scenarioPRJP1.node[1].app 	"Total deleted" 	360
scalar scenarioPRJP1.node[1].app 	dropPk:count 	360
attr interpolationmode  none
attr source  dropPk
attr title  "packets dropped, count"
scalar scenarioPRJP1.node[1].app 	dropPk:sum(packetBytes) 	184320
attr interpolationmode  none
attr source  dropPk
attr title  "packets dropped, sum(packetBytes)"
scalar scenarioPRJP1.node[1].app 	outOfOrderPk:count 	139
attr interpolationmode  none
attr source  outOfOrderPk
attr title  "packets received out of order, count"
scalar scenarioPRJP1.node[1].app 	outOfOrderPk:sum(packetBytes) 	71168
attr interpolationmode  none
attr source  outOfOrderPk
attr title  "packets received out of order, sum(packetBytes)"
scalar scenarioPRJP1.node[1].app 	rcvdPk:count 	264
attr interpolationmode  none
attr source  rcvdPk
attr title  "packets received, count"
scalar scenarioPRJP1.node[1].app 	rcvdPk:sum(packetBytes) 	135168
attr interpolationmode  none
attr source  rcvdPk
attr title  "packets received, sum(packetBytes)"
statistic scenarioPRJP1.node[1].app 	endToEndDelay:histogram
field count 264
field mean 2.1243649934661
field stddev 4.7282368518583
field sum 560.83235827506
field sqrsum 7071.0994693947
field min 0.000945011007
field max 19.117442695903
attr interpolationmode  none
attr source  messageAge(rcvdPk)
attr title  "delay, histogram"
attr unit  s
bin	-INF	0
bin	-9.5212855929135	0
bin	-8.2516548457241	0
bin	-6.9820240985347	0
bin	-5.7123933513453	0
bin	-4.4427626041559	0
bin	-3.1731318569665	0
bin	-1.9035011097771	0
bin	-0.6338703625877	205
bin	0.6357603846017	3
bin	1.9053911317911	4
bin	3.1750218789805	11
bin	4.4446526261699	1
bin	5.7142833733593	4
bin	6.9839141205487	5
bin	8.2535448677381	3
bin	9.5231756149275	2
bin	10.792806362117	3
bin	12.062437109306	4
bin	13.332067856496	4
bin	14.601698603685	6
bin	15.871329350874	4
bin	17.140960098064	1
bin	18.410590845253	4
bin	19.680221592443	0
bin	20.949852339632	0
bin	22.219483086821	0
bin	23.489113834011	0
bin	24.7587445812	0
bin	26.02837532839	0
bin	27.298006075579	0
bin	28.567636822768	0
scalar scenarioPRJP1.node[1].app 	sentPk:count 	2604
attr interpolationmode  none
attr source  sentPk
attr title  "packets sent, count"
scalar scenarioPRJP1.node[1].app 	sentPk:sum(packetBytes) 	1333248
attr interpolationmode  none
attr source  sentPk
attr title  "packets sent, sum(packetBytes)"
scalar scenarioPRJP1.node[1].udp 	droppedPkBadChecksum:count 	0
attr interpolationmode  none
attr title  "packets dropped (checksum error), count"
scalar scenarioPRJP1.node[1].udp 	droppedPkWrongPort:count 	0
attr interpolationmode  none
attr title  "packets dropped (wrong port), count"
scalar scenarioPRJP1.node[1].udp 	passedUpPk:count 	763
attr interpolationmode  none
attr title  "packets passed up, count"
scalar scenarioPRJP1.node[1].udp 	rcvdPk:count 	763
attr interpolationmode  none
attr source  rcvdPk
attr title  "packets received, count"
scalar scenarioPRJP1.node[1].udp 	rcvdPk:sum(packetBytes) 	396760
attr interpolationmode  none
attr source  rcvdPk
attr title  "packets received, sum(packetBytes)"
scalar scenarioPRJP1.node[1].udp 	sentPk:count 	2604
attr interpolationmode  none
attr source  sentPk
attr title  "packets sent, count"
scalar scenarioPRJP1.node[1].udp 	sentPk:sum(packetBytes) 	1354080
attr interpolationmode  none
attr source  sentPk
attr title  "packets sent, sum(packetBytes)"
scalar scenarioPRJP1.node[1].networkLayer.arp 	failedARPResolution:count 	0
attr title  "ARP failed resolutions, count"
scalar scenarioPRJP1.node[1].networkLayer.arp 	completedARPResolution:count 	26
attr title  "ARP completed resolutions, count"
scalar scenarioPRJP1.node[1].networkLayer.arp 	initiatedARPResolution:count 	13
attr title  "ARP initiated resolutions, count"
scalar scenarioPRJP1.node[1].networkLayer.arp 	sentReply:count 	8
attr title  "ARP replies sent, count"
scalar scenarioPRJP1.node[1].networkLayer.arp 	sentReq:count 	13
attr title  "ARP request sent, count"
scalar scenarioPRJP1.node[1].mobility 	startTime 	0.1
scalar scenarioPRJP1.node[1].mobility 	totalTime 	949.9
scalar scenarioPRJP1.node[1].mobility 	stopTime 	950
scalar scenarioPRJP1.node[1].mobility 	minSpeed 	2.4756460937972e-13
scalar scenarioPRJP1.node[1].mobility 	maxSpeed 	16.106015640887
scalar scenarioPRJP1.node[1].mobility 	totalDistance 	9267.9920145784
scalar scenarioPRJP1.node[1].mobility 	totalCO2Emission 	2334.5638028916
scalar scenarioPRJP1.node[1].wlan[0].mgmt 	dataQueueLen:max 	100
attr interpolationmode  sample-hold
attr title  "data queue length, max"
scalar scenarioPRJP1.node[1].wlan[0].mgmt 	dataQueueLen:timeavg 	0.020368297312368
attr interpolationmode  sample-hold
attr title  "data queue length, timeavg"
scalar scenarioPRJP1.node[1].wlan[0].mgmt 	dropPkByQueue:count 	14
attr interpolationmode  none
attr source  dropPkByQueue
attr title  "packets dropped by queue, count"
scalar scenarioPRJP1.node[1].wlan[0].mgmt 	dropPkByQueue:sum(packetBytes) 	8064
attr interpolationmode  none
attr source  dropPkByQueue
attr title  "packets dropped by queue, sum(packetBytes)"
scalar scenarioPRJP1.node[1].wlan[0].mac 	"number of received packets" 	3651
scalar scenarioPRJP1.node[1].wlan[0].mac 	"number of collisions" 	165
scalar scenarioPRJP1.node[1].wlan[0].mac 	"number of internal collisions" 	0
scalar scenarioPRJP1.node[1].wlan[0].mac 	"number of retry for AC 0" 	2326
scalar scenarioPRJP1.node[1].wlan[0].mac 	"number of retry for AC 1" 	0
scalar scenarioPRJP1.node[1].wlan[0].mac 	"number of retry for AC 2" 	0
scalar scenarioPRJP1.node[1].wlan[0].mac 	"number of retry for AC 3" 	0
scalar scenarioPRJP1.node[1].wlan[0].mac 	"sent and received bits" 	3436448
scalar scenarioPRJP1.node[1].wlan[0].mac 	"sent packet within AC 0" 	519
scalar scenarioPRJP1.node[1].wlan[0].mac 	"sent packet within AC 1" 	0
scalar scenarioPRJP1.node[1].wlan[0].mac 	"sent packet within AC 2" 	0
scalar scenarioPRJP1.node[1].wlan[0].mac 	"sent packet within AC 3" 	0
scalar scenarioPRJP1.node[1].wlan[0].mac 	"sent in TXOP " 	0
scalar scenarioPRJP1.node[1].wlan[0].mac 	"sentWithoutRetry AC 0" 	515
scalar scenarioPRJP1.node[1].wlan[0].mac 	"sentWithoutRetry AC 1" 	0
scalar scenarioPRJP1.node[1].wlan[0].mac 	"sentWithoutRetry AC 2" 	0
scalar scenarioPRJP1.node[1].wlan[0].mac 	"sentWithoutRetry AC 3" 	0
scalar scenarioPRJP1.node[1].wlan[0].mac 	"numGivenUp AC 0" 	386
scalar scenarioPRJP1.node[1].wlan[0].mac 	"numGivenUp AC 1" 	0
scalar scenarioPRJP1.node[1].wlan[0].mac 	"numGivenUp AC 2" 	0
scalar scenarioPRJP1.node[1].wlan[0].mac 	"numGivenUp AC 3" 	0
scalar scenarioPRJP1.node[1].wlan[0].mac 	"numDropped AC 0" 	101
scalar scenarioPRJP1.node[1].wlan[0].mac 	"numDropped AC 1" 	0
scalar scenarioPRJP1.node[1].wlan[0].mac 	"numDropped AC 2" 	0
scalar scenarioPRJP1.node[1].wlan[0].mac 	"numDropped AC 3" 	0
scalar scenarioPRJP1.node[1].wlan[0].mac 	rcvdPkFromLL:count 	12397
attr interpolationmode  none
attr source  packetReceivedFromLower
attr title  "packets received from lower layer, count"
scalar scenarioPRJP1.node[1].wlan[0].mac 	rcvdPkFromLL:sum(packetBytes) 	3578220
attr interpolationmode  none
attr source  packetReceivedFromLower
attr title  "packets received from lower layer, sum(packetBytes)"
scalar scenarioPRJP1.node[1].wlan[0].mac 	sentDownPk:count 	8477
attr interpolationmode  none
attr source  packetSentToLower
attr title  "packets sent to lower layer, count"
scalar scenarioPRJP1.node[1].wlan[0].mac 	sentDownPk:sum(packetBytes) 	1966034
attr interpolationmode  none
attr source  packetSentToLower
attr title  "packets sent to lower layer, sum(packetBytes)"
scalar scenarioPRJP1.node[1].wlan[0].mac 	rcvdPkFromHL:count 	2601
attr interpolationmode  none
attr source  packetReceivedFromUpper
attr title  "packets received from higher layer, count"
scalar scenarioPRJP1.node[1].wlan[0].mac 	rcvdPkFromHL:sum(packetBytes) 	693740
attr interpolationmode  none
attr source  packetReceivedFromUpper
attr title  "packets received from higher layer, sum(packetBytes)"
scalar scenarioPRJP1.node[1].wlan[0].mac 	passedUpPk:count 	2846
attr interpolationmode  none
attr source  packetSentToUpper
attr title  "packets passed to higher layer, count"
scalar scenarioPRJP1.node[1].wlan[0].mac 	passedUpPk:sum(packetBytes) 	688336
attr interpolationmode  none
attr source  packetSentToUpper
attr title  "packets passed to higher layer, sum(packetBytes)"
statistic scenarioPRJP1.node[1].wlan[0].radio 	radioChannel:histogram
field count 1
field mean 3
field stddev -nan
field sum 3
field sqrsum 9
field min 3
field max 3
attr interpolationmode  sample-hold
attr source  radioChannelChanged
attr title  "Radio channel, histogram"
bin	-INF	0
bin	2	0
bin	3	1
bin	4	0
scalar scenarioPRJP1.node[1].wlan[0].radio 	transmissionState:count 	33908
attr interpolationmode  sample-hold
attr source  transmissionStateChanged
attr title  "Radio transmission state, count"
scalar scenarioPRJP1.node[1].wlan[0].radio 	receptionState:count 	41805
attr interpolationmode  sample-hold
attr source  receptionStateChanged
attr title  "Radio reception state, count"
scalar scenarioPRJP1.node[1].wlan[0].radio 	radioMode:count 	16956
attr interpolationmode  sample-hold
attr source  radioModeChanged
attr title  "Radio mode, count"
statistic scenarioPRJP1.node[1].wlan[0].radio 	symbolErrorRate:histogram
field count 0
field mean -nan
field stddev -nan
field sum 0
field sqrsum 0
field min -nan
field max -nan
attr source  symbolErrorRate
attr title  "Symbol error rate, histogram"
bin	-INF	0
bin	-0.5	0
bin	-0.46666666666667	0
bin	-0.43333333333333	0
bin	-0.4	0
bin	-0.36666666666667	0
bin	-0.33333333333333	0
bin	-0.3	0
bin	-0.26666666666667	0
bin	-0.23333333333333	0
bin	-0.2	0
bin	-0.16666666666667	0
bin	-0.13333333333333	0
bin	-0.1	0
bin	-0.066666666666667	0
bin	-0.033333333333333	0
bin	0	0
bin	0.033333333333333	0
bin	0.066666666666667	0
bin	0.1	0
bin	0.13333333333333	0
bin	0.16666666666667	0
bin	0.2	0
bin	0.23333333333333	0
bin	0.26666666666667	0
bin	0.3	0
bin	0.33333333333333	0
bin	0.36666666666667	0
bin	0.4	0
bin	0.43333333333333	0
bin	0.46666666666667	0
bin	0.5	0
statistic scenarioPRJP1.node[1].wlan[0].radio 	bitErrorRate:histogram
field count 0
field mean -nan
field stddev -nan
field sum 0
field sqrsum 0
field min -nan
field max -nan
attr source  bitErrorRate
attr title  "Bit error rate, histogram"
bin	-INF	0
bin	-0.5	0
bin	-0.46666666666667	0
bin	-0.43333333333333	0
bin	-0.4	0
bin	-0.36666666666667	0
bin	-0.33333333333333	0
bin	-0.3	0
bin	-0.26666666666667	0
bin	-0.23333333333333	0
bin	-0.2	0
bin	-0.16666666666667	0
bin	-0.13333333333333	0
bin	-0.1	0
bin	-0.066666666666667	0
bin	-0.033333333333333	0
bin	0	0
bin	0.033333333333333	0
bin	0.066666666666667	0
bin	0.1	0
bin	0.13333333333333	0
bin	0.16666666666667	0
bin	0.2	0
bin	0.23333333333333	0
bin	0.26666666666667	0
bin	0.3	0
bin	0.33333333333333	0
bin	0.36666666666667	0
bin	0.4	0
bin	0.43333333333333	0
bin	0.46666666666667	0
bin	0.5	0
statistic scenarioPRJP1.node[1].wlan[0].radio 	packetErrorRate:histogram
field count 12397
field mean 0.013109008799535
field stddev 0.11357971006907
field sum 162.51238208784
field sqrsum 162.04312153292
field min 0
field max 1
attr source  packetErrorRate
attr title  "Packet error rate, histogram"
bin	-INF	0
bin	-0.5	0
bin	-0.46666666666667	0
bin	-0.43333333333333	0
bin	-0.4	0
bin	-0.36666666666667	0
bin	-0.33333333333333	0
bin	-0.3	0
bin	-0.26666666666667	0
bin	-0.23333333333333	0
bin	-0.2	0
bin	-0.16666666666667	0
bin	-0.13333333333333	0
bin	-0.1	0
bin	-0.066666666666667	0
bin	-0.033333333333333	0
bin	0	12231
bin	0.033333333333333	3
bin	0.066666666666667	0
bin	0.1	0
bin	0.13333333333333	0
bin	0.16666666666667	1
bin	0.2	0
bin	0.23333333333333	0
bin	0.26666666666667	0
bin	0.3	0
bin	0.33333333333333	0
bin	0.36666666666667	0
bin	0.4	0
bin	0.43333333333333	0
bin	0.46666666666667	0
bin	0.5	162
statistic scenarioPRJP1.node[1].wlan[0].radio 	minSNIR:histogram
field count 12397
field mean 30275.41604359
field stddev 111571.67961928
field sum 375324332.69239
field sqrsum 1.656714795588e+14
field min 0.00078736050265878
field max 753239.71923443
attr source  minSNIR
attr title  "Min SNIR, histogram"
bin	-INF	0
bin	-6525.5163852096	0
bin	-5601.1945327874	0
bin	-4676.8726803653	0
bin	-3752.5508279432	0
bin	-2828.228975521	0
bin	-1903.9071230989	0
bin	-979.58527067676	0
bin	-55.26341825462	9546
bin	869.05843416752	379
bin	1793.3802865897	116
bin	2717.7021390118	195
bin	3642.0239914339	62
bin	4566.3458438561	34
bin	5490.6676962782	37
bin	6414.9895487003	41
bin	7339.3114011225	16
bin	8263.6332535446	44
bin	9187.9551059668	34
bin	10112.276958389	45
bin	11036.598810811	25
bin	11960.920663233	31
bin	12885.242515655	18
bin	13809.564368077	18
bin	14733.8862205	12
bin	15658.208072922	7
bin	16582.529925344	9
bin	17506.851777766	6
bin	18431.173630188	41
bin	19355.49548261	10
bin	20279.817335032	10
bin	21204.139187455	1661
scalar scenarioPRJP1.node[1].lo0.lo 	droppedPkBitError:count 	0
attr interpolationmode  none
attr source  dropPkBitError
attr title  "packets dropped/bit error, count"
scalar scenarioPRJP1.node[1].lo0.lo 	droppedPkBitError:sum(packetBytes) 	0
attr interpolationmode  none
attr source  dropPkBitError
attr title  "packets dropped/bit error, sum(packetBytes)"
scalar scenarioPRJP1.node[1].lo0.lo 	rcvdPkFromHL:count 	0
attr interpolationmode  none
attr source  packetReceivedFromUpper
attr title  "packets received from higher layer, count"
scalar scenarioPRJP1.node[1].lo0.lo 	rcvdPkFromHL:sum(packetBytes) 	0
attr interpolationmode  none
attr source  packetReceivedFromUpper
attr title  "packets received from higher layer, sum(packetBytes)"
scalar scenarioPRJP1.node[1].lo0.lo 	passedUpPk:count 	0
attr interpolationmode  none
attr source  packetSentToUpper
attr title  "packets passed to higher layer, count"
scalar scenarioPRJP1.node[1].lo0.lo 	passedUpPk:sum(packetBytes) 	0
attr interpolationmode  none
attr source  packetSentToUpper
attr title  "packets passed to higher layer, sum(packetBytes)"
scalar scenarioPRJP1.node[9].app 	"Total sent" 	2609
scalar scenarioPRJP1.node[9].app 	"Total received" 	162
scalar scenarioPRJP1.node[9].app 	"Total deleted" 	65
scalar scenarioPRJP1.node[9].app 	dropPk:count 	65
attr interpolationmode  none
attr source  dropPk
attr title  "packets dropped, count"
scalar scenarioPRJP1.node[9].app 	dropPk:sum(packetBytes) 	33280
attr interpolationmode  none
attr source  dropPk
attr title  "packets dropped, sum(packetBytes)"
scalar scenarioPRJP1.node[9].app 	outOfOrderPk:count 	215
attr interpolationmode  none
attr source  outOfOrderPk
attr title  "packets received out of order, count"
scalar scenarioPRJP1.node[9].app 	outOfOrderPk:sum(packetBytes) 	110080
attr interpolationmode  none
attr source  outOfOrderPk
attr title  "packets received out of order, sum(packetBytes)"
scalar scenarioPRJP1.node[9].app 	rcvdPk:count 	162
attr interpolationmode  none
attr source  rcvdPk
attr title  "packets received, count"
scalar scenarioPRJP1.node[9].app 	rcvdPk:sum(packetBytes) 	82944
attr interpolationmode  none
attr source  rcvdPk
attr title  "packets received, sum(packetBytes)"
statistic scenarioPRJP1.node[9].app 	endToEndDelay:histogram
field count 162
field mean 1.2653597582259
field stddev 3.7390368053987
field sum 204.98828083259
field sqrsum 2510.2277148458
field min 0.000945011007
field max 19.396965918576
attr interpolationmode  none
attr source  messageAge(rcvdPk)
attr title  "delay, histogram"
attr unit  s
bin	-INF	0
bin	-9.6970654252605	0
bin	-8.4039973655344	0
bin	-7.1109293058084	0
bin	-5.8178612460823	0
bin	-4.5247931863562	0
bin	-3.2317251266302	0
bin	-1.9386570669041	0
bin	-0.64558900717804	142
bin	0.64747905254803	1
bin	1.9405471122741	0
bin	3.2336151720002	2
bin	4.5266832317262	1
bin	5.8197512914523	1
bin	7.1128193511784	3
bin	8.4058874109044	0
bin	9.6989554706305	3
bin	10.992023530357	1
bin	12.285091590083	4
bin	13.578159649809	1
bin	14.871227709535	1
bin	16.164295769261	1
bin	17.457363828987	0
bin	18.750431888713	1
bin	20.043499948439	0
bin	21.336568008165	0
bin	22.629636067891	0
bin	23.922704127617	0
bin	25.215772187343	0
bin	26.508840247069	0
bin	27.801908306795	0
bin	29.094976366522	0
scalar scenarioPRJP1.node[9].app 	sentPk:count 	2609
attr interpolationmode  none
attr source  sentPk
attr title  "packets sent, count"
scalar scenarioPRJP1.node[9].app 	sentPk:sum(packetBytes) 	1335808
attr interpolationmode  none
attr source  sentPk
attr title  "packets sent, sum(packetBytes)"
scalar scenarioPRJP1.node[9].udp 	droppedPkBadChecksum:count 	0
attr interpolationmode  none
attr title  "packets dropped (checksum error), count"
scalar scenarioPRJP1.node[9].udp 	droppedPkWrongPort:count 	0
attr interpolationmode  none
attr title  "packets dropped (wrong port), count"
scalar scenarioPRJP1.node[9].udp 	passedUpPk:count 	442
attr interpolationmode  none
attr title  "packets passed up, count"
scalar scenarioPRJP1.node[9].udp 	rcvdPk:count 	442
attr interpolationmode  none
attr source  rcvdPk
attr title  "packets received, count"
scalar scenarioPRJP1.node[9].udp 	rcvdPk:sum(packetBytes) 	229840
attr interpolationmode  none
attr source  rcvdPk
attr title  "packets received, sum(packetBytes)"
scalar scenarioPRJP1.node[9].udp 	sentPk:count 	2609
attr interpolationmode  none
attr source  sentPk
attr title  "packets sent, count"
scalar scenarioPRJP1.node[9].udp 	sentPk:sum(packetBytes) 	1356680
attr interpolationmode  none
attr source  sentPk
attr title  "packets sent, sum(packetBytes)"
scalar scenarioPRJP1.node[9].networkLayer.arp 	failedARPResolution:count 	0
attr title  "ARP failed resolutions, count"
scalar scenarioPRJP1.node[9].networkLayer.arp 	completedARPResolution:count 	16
attr title  "ARP completed resolutions, count"
scalar scenarioPRJP1.node[9].networkLayer.arp 	initiatedARPResolution:count 	4
attr title  "ARP initiated resolutions, count"
scalar scenarioPRJP1.node[9].networkLayer.arp 	sentReply:count 	8
attr title  "ARP replies sent, count"
scalar scenarioPRJP1.node[9].networkLayer.arp 	sentReq:count 	4
attr title  "ARP request sent, count"
scalar scenarioPRJP1.node[9].mobility 	startTime 	2.6
scalar scenarioPRJP1.node[9].mobility 	totalTime 	947.4
scalar scenarioPRJP1.node[9].mobility 	stopTime 	950
scalar scenarioPRJP1.node[9].mobility 	minSpeed 	2.4758657981406e-13
scalar scenarioPRJP1.node[9].mobility 	maxSpeed 	15.662264661024
scalar scenarioPRJP1.node[9].mobility 	totalDistance 	8934.1060233194
scalar scenarioPRJP1.node[9].mobility 	totalCO2Emission 	2287.0872307099
scalar scenarioPRJP1.node[9].wlan[0].mgmt 	dataQueueLen:max 	100
attr interpolationmode  sample-hold
attr title  "data queue length, max"
scalar scenarioPRJP1.node[9].wlan[0].mgmt 	dataQueueLen:timeavg 	0.018970524290598
attr interpolationmode  sample-hold
attr title  "data queue length, timeavg"
scalar scenarioPRJP1.node[9].wlan[0].mgmt 	dropPkByQueue:count 	17
attr interpolationmode  none
attr source  dropPkByQueue
attr title  "packets dropped by queue, count"
scalar scenarioPRJP1.node[9].wlan[0].mgmt 	dropPkByQueue:sum(packetBytes) 	9792
attr interpolationmode  none
attr source  dropPkByQueue
attr title  "packets dropped by queue, sum(packetBytes)"
scalar scenarioPRJP1.node[9].wlan[0].mac 	"number of received packets" 	1196
scalar scenarioPRJP1.node[9].wlan[0].mac 	"number of collisions" 	6
scalar scenarioPRJP1.node[9].wlan[0].mac 	"number of internal collisions" 	0
scalar scenarioPRJP1.node[9].wlan[0].mac 	"number of retry for AC 0" 	649
scalar scenarioPRJP1.node[9].wlan[0].mac 	"number of retry for AC 1" 	0
scalar scenarioPRJP1.node[9].wlan[0].mac 	"number of retry for AC 2" 	0
scalar scenarioPRJP1.node[9].wlan[0].mac 	"number of retry for AC 3" 	0
scalar scenarioPRJP1.node[9].wlan[0].mac 	"sent and received bits" 	2470560
scalar scenarioPRJP1.node[9].wlan[0].mac 	"sent packet within AC 0" 	348
scalar scenarioPRJP1.node[9].wlan[0].mac 	"sent packet within AC 1" 	0
scalar scenarioPRJP1.node[9].wlan[0].mac 	"sent packet within AC 2" 	0
scalar scenarioPRJP1.node[9].wlan[0].mac 	"sent packet within AC 3" 	0
scalar scenarioPRJP1.node[9].wlan[0].mac 	"sent in TXOP " 	0
scalar scenarioPRJP1.node[9].wlan[0].mac 	"sentWithoutRetry AC 0" 	347
scalar scenarioPRJP1.node[9].wlan[0].mac 	"sentWithoutRetry AC 1" 	0
scalar scenarioPRJP1.node[9].wlan[0].mac 	"sentWithoutRetry AC 2" 	0
scalar scenarioPRJP1.node[9].wlan[0].mac 	"sentWithoutRetry AC 3" 	0
scalar scenarioPRJP1.node[9].wlan[0].mac 	"numGivenUp AC 0" 	108
scalar scenarioPRJP1.node[9].wlan[0].mac 	"numGivenUp AC 1" 	0
scalar scenarioPRJP1.node[9].wlan[0].mac 	"numGivenUp AC 2" 	0
scalar scenarioPRJP1.node[9].wlan[0].mac 	"numGivenUp AC 3" 	0
scalar scenarioPRJP1.node[9].wlan[0].mac 	"numDropped AC 0" 	75
scalar scenarioPRJP1.node[9].wlan[0].mac 	"numDropped AC 1" 	0
scalar scenarioPRJP1.node[9].wlan[0].mac 	"numDropped AC 2" 	0
scalar scenarioPRJP1.node[9].wlan[0].mac 	"numDropped AC 3" 	0
scalar scenarioPRJP1.node[9].wlan[0].mac 	rcvdPkFromLL:count 	5625
attr interpolationmode  none
attr source  packetReceivedFromLower
attr title  "packets received from lower layer, count"
scalar scenarioPRJP1.node[9].wlan[0].mac 	rcvdPkFromLL:sum(packetBytes) 	1642312
attr interpolationmode  none
attr source  packetReceivedFromLower
attr title  "packets received from lower layer, sum(packetBytes)"
scalar scenarioPRJP1.node[9].wlan[0].mac 	sentDownPk:count 	3621
attr interpolationmode  none
attr source  packetSentToLower
attr title  "packets sent to lower layer, count"
scalar scenarioPRJP1.node[9].wlan[0].mac 	sentDownPk:sum(packetBytes) 	715844
attr interpolationmode  none
attr source  packetSentToLower
attr title  "packets sent to lower layer, sum(packetBytes)"
scalar scenarioPRJP1.node[9].wlan[0].mac 	rcvdPkFromHL:count 	1851
attr interpolationmode  none
attr source  packetReceivedFromUpper
attr title  "packets received from higher layer, count"
scalar scenarioPRJP1.node[9].wlan[0].mac 	rcvdPkFromHL:sum(packetBytes) 	404784
attr interpolationmode  none
attr source  packetReceivedFromUpper
attr title  "packets received from higher layer, sum(packetBytes)"
scalar scenarioPRJP1.node[9].wlan[0].mac 	passedUpPk:count 	1636
attr interpolationmode  none
attr source  packetSentToUpper
attr title  "packets passed to higher layer, count"
scalar scenarioPRJP1.node[9].wlan[0].mac 	passedUpPk:sum(packetBytes) 	362656
attr interpolationmode  none
attr source  packetSentToUpper
attr title  "packets passed to higher layer, sum(packetBytes)"
statistic scenarioPRJP1.node[9].wlan[0].radio 	radioChannel:histogram
field count 1
field mean 3
field stddev -nan
field sum 3
field sqrsum 9
field min 3
field max 3
attr interpolationmode  sample-hold
attr source  radioChannelChanged
attr title  "Radio channel, histogram"
bin	-INF	0
bin	2	0
bin	3	1
bin	4	0
scalar scenarioPRJP1.node[9].wlan[0].radio 	transmissionState:count 	14484
attr interpolationmode  sample-hold
attr source  transmissionStateChanged
attr title  "Radio transmission state, count"
scalar scenarioPRJP1.node[9].wlan[0].radio 	receptionState:count 	18498
attr interpolationmode  sample-hold
attr source  receptionStateChanged
attr title  "Radio reception state, count"
scalar scenarioPRJP1.node[9].wlan[0].radio 	radioMode:count 	7244
attr interpolationmode  sample-hold
attr source  radioModeChanged
attr title  "Radio mode, count"
statistic scenarioPRJP1.node[9].wlan[0].radio 	symbolErrorRate:histogram
field count 0
field mean -nan
field stddev -nan
field sum 0
field sqrsum 0
field min -nan
field max -nan
attr source  symbolErrorRate
attr title  "Symbol error rate, histogram"
bin	-INF	0
bin	-0.5	0
bin	-0.46666666666667	0
bin	-0.43333333333333	0
bin	-0.4	0
bin	-0.36666666666667	0
bin	-0.33333333333333	0
bin	-0.3	0
bin	-0.26666666666667	0
bin	-0.23333333333333	0
bin	-0.2	0
bin	-0.16666666666667	0
bin	-0.13333333333333	0
bin	-0.1	0
bin	-0.066666666666667	0
bin	-0.033333333333333	0
bin	0	0
bin	0.033333333333333	0
bin	0.066666666666667	0
bin	0.1	0
bin	0.13333333333333	0
bin	0.16666666666667	0
bin	0.2	0
bin	0.23333333333333	0
bin	0.26666666666667	0
bin	0.3	0
bin	0.33333333333333	0
bin	0.36666666666667	0
bin	0.4	0
bin	0.43333333333333	0
bin	0.46666666666667	0
bin	0.5	0
statistic scenarioPRJP1.node[9].wlan[0].radio 	bitErrorRate:histogram
field count 0
field mean -nan
field stddev -nan
field sum 0
field sqrsum 0
field min -nan
field max -nan
attr source  bitErrorRate
attr title  "Bit error rate, histogram"
bin	-INF	0
bin	-0.5	0
bin	-0.46666666666667	0
bin	-0.43333333333333	0
bin	-0.4	0
bin	-0.36666666666667	0
bin	-0.33333333333333	0
bin	-0.3	0
bin	-0.26666666666667	0
bin	-0.23333333333333	0
bin	-0.2	0
bin	-0.16666666666667	0
bin	-0.13333333333333	0
bin	-0.1	0
bin	-0.066666666666667	0
bin	-0.033333333333333	0
bin	0	0
bin	0.033333333333333	0
bin	0.066666666666667	0
bin	0.1	0
bin	0.13333333333333	0
bin	0.16666666666667	0
bin	0.2	0
bin	0.23333333333333	0
bin	0.26666666666667	0
bin	0.3	0
bin	0.33333333333333	0
bin	0.36666666666667	0
bin	0.4	0
bin	0.43333333333333	0
bin	0.46666666666667	0
bin	0.5	0
statistic scenarioPRJP1.node[9].wlan[0].radio 	packetErrorRate:histogram
field count 5625
field mean 0.00089242761661054
field stddev 0.029804493995113
field sum 5.0199053434343
field sqrsum 5.0003233197632
field min 0
field max 1
attr source  packetErrorRate
attr title  "Packet error rate, histogram"
bin	-INF	0
bin	-0.5	0
bin	-0.46666666666667	0
bin	-0.43333333333333	0
bin	-0.4	0
bin	-0.36666666666667	0
bin	-0.33333333333333	0
bin	-0.3	0
bin	-0.26666666666667	0
bin	-0.23333333333333	0
bin	-0.2	0
bin	-0.16666666666667	0
bin	-0.13333333333333	0
bin	-0.1	0
bin	-0.066666666666667	0
bin	-0.033333333333333	0
bin	0	5620
bin	0.033333333333333	0
bin	0.066666666666667	0
bin	0.1	0
bin	0.13333333333333	0
bin	0.16666666666667	0
bin	0.2	0
bin	0.23333333333333	0
bin	0.26666666666667	0
bin	0.3	0
bin	0.33333333333333	0
bin	0.36666666666667	0
bin	0.4	0
bin	0.43333333333333	0
bin	0.46666666666667	0
bin	0.5	5
statistic scenarioPRJP1.node[9].wlan[0].radio 	minSNIR:histogram
field count 5625
field mean 29997.142492558
field stddev 113907.10477291
field sum 168733926.52064
field sqrsum 78031971220977
field min 0.001756593738085
field max 753239.71923443
attr source  minSNIR
attr title  "Min SNIR, histogram"
bin	-INF	0
bin	-6546.0192545044	0
bin	-5664.5410964264	0
bin	-4783.0629383485	0
bin	-3901.5847802706	0
bin	-3020.1066221926	0
bin	-2138.6284641147	0
bin	-1257.1503060368	0
bin	-375.67214795886	3720
bin	505.80601011907	458
bin	1387.284168197	136
bin	2268.7623262749	201
bin	3150.2404843528	81
bin	4031.7186424308	39
bin	4913.1968005087	26
bin	5794.6749585866	34
bin	6676.1531166646	21
bin	7557.6312747425	9
bin	8439.1094328204	8
bin	9320.5875908983	24
bin	10202.065748976	16
bin	11083.543907054	25
bin	11965.022065132	32
bin	12846.50022321	19
bin	13727.978381288	11
bin	14609.456539366	10
bin	15490.934697444	10
bin	16372.412855522	19
bin	17253.8910136	11
bin	18135.369171678	10
bin	19016.847329756	80
bin	19898.325487833	625
scalar scenarioPRJP1.node[9].lo0.lo 	droppedPkBitError:count 	0
attr interpolationmode  none
attr source  dropPkBitError
attr title  "packets dropped/bit error, count"
scalar scenarioPRJP1.node[9].lo0.lo 	droppedPkBitError:sum(packetBytes) 	0
attr interpolationmode  none
attr source  dropPkBitError
attr title  "packets dropped/bit error, sum(packetBytes)"
scalar scenarioPRJP1.node[9].lo0.lo 	rcvdPkFromHL:count 	0
attr interpolationmode  none
attr source  packetReceivedFromUpper
attr title  "packets received from higher layer, count"
scalar scenarioPRJP1.node[9].lo0.lo 	rcvdPkFromHL:sum(packetBytes) 	0
attr interpolationmode  none
attr source  packetReceivedFromUpper
attr title  "packets received from higher layer, sum(packetBytes)"
scalar scenarioPRJP1.node[9].lo0.lo 	passedUpPk:count 	0
attr interpolationmode  none
attr source  packetSentToUpper
attr title  "packets passed to higher layer, count"
scalar scenarioPRJP1.node[9].lo0.lo 	passedUpPk:sum(packetBytes) 	0
attr interpolationmode  none
attr source  packetSentToUpper
attr title  "packets passed to higher layer, sum(packetBytes)"
scalar scenarioPRJP1.node[2].app 	"Total sent" 	2607
scalar scenarioPRJP1.node[2].app 	"Total received" 	180
scalar scenarioPRJP1.node[2].app 	"Total deleted" 	419
scalar scenarioPRJP1.node[2].app 	dropPk:count 	419
attr interpolationmode  none
attr source  dropPk
attr title  "packets dropped, count"
scalar scenarioPRJP1.node[2].app 	dropPk:sum(packetBytes) 	214528
attr interpolationmode  none
attr source  dropPk
attr title  "packets dropped, sum(packetBytes)"
scalar scenarioPRJP1.node[2].app 	outOfOrderPk:count 	152
attr interpolationmode  none
attr source  outOfOrderPk
attr title  "packets received out of order, count"
scalar scenarioPRJP1.node[2].app 	outOfOrderPk:sum(packetBytes) 	77824
attr interpolationmode  none
attr source  outOfOrderPk
attr title  "packets received out of order, sum(packetBytes)"
scalar scenarioPRJP1.node[2].app 	rcvdPk:count 	180
attr interpolationmode  none
attr source  rcvdPk
attr title  "packets received, count"
scalar scenarioPRJP1.node[2].app 	rcvdPk:sum(packetBytes) 	92160
attr interpolationmode  none
attr source  rcvdPk
attr title  "packets received, sum(packetBytes)"
statistic scenarioPRJP1.node[2].app 	endToEndDelay:histogram
field count 180
field mean 2.9692580846034
field stddev 5.3966321204807
field sum 534.46645522862
field sqrsum 6800.1000887778
field min 0.000945011007
field max 19.417792752271
attr interpolationmode  none
attr source  messageAge(rcvdPk)
attr title  "delay, histogram"
attr unit  s
bin	-INF	0
bin	-9.707478859625	0
bin	-8.4130223435407	0
bin	-7.1185658274565	0
bin	-5.8241093113722	0
bin	-4.5296527952879	0
bin	-3.2351962792037	0
bin	-1.9407397631194	0
bin	-0.64628324703513	127
bin	0.64817326904913	2
bin	1.9426297851334	4
bin	3.2370863012177	2
bin	4.5315428173019	4
bin	5.8259993333862	7
bin	7.1204558494705	4
bin	8.4149123655547	5
bin	9.709368881639	2
bin	11.003825397723	3
bin	12.298281913808	3
bin	13.592738429892	6
bin	14.887194945976	2
bin	16.18165146206	4
bin	17.476107978145	3
bin	18.770564494229	2
bin	20.065021010313	0
bin	21.359477526397	0
bin	22.653934042482	0
bin	23.948390558566	0
bin	25.24284707465	0
bin	26.537303590734	0
bin	27.831760106819	0
bin	29.126216622903	0
scalar scenarioPRJP1.node[2].app 	sentPk:count 	2607
attr interpolationmode  none
attr source  sentPk
attr title  "packets sent, count"
scalar scenarioPRJP1.node[2].app 	sentPk:sum(packetBytes) 	1334784
attr interpolationmode  none
attr source  sentPk
attr title  "packets sent, sum(packetBytes)"
scalar scenarioPRJP1.node[2].udp 	droppedPkBadChecksum:count 	0
attr interpolationmode  none
attr title  "packets dropped (checksum error), count"
scalar scenarioPRJP1.node[2].udp 	droppedPkWrongPort:count 	0
attr interpolationmode  none
attr title  "packets dropped (wrong port), count"
scalar scenarioPRJP1.node[2].udp 	passedUpPk:count 	751
attr interpolationmode  none
attr title  "packets passed up, count"
scalar scenarioPRJP1.node[2].udp 	rcvdPk:count 	751
attr interpolationmode  none
attr source  rcvdPk
attr title  "packets received, count"
scalar scenarioPRJP1.node[2].udp 	rcvdPk:sum(packetBytes) 	390520
attr interpolationmode  none
attr source  rcvdPk
attr title  "packets received, sum(packetBytes)"
scalar scenarioPRJP1.node[2].udp 	sentPk:count 	2607
attr interpolationmode  none
attr source  sentPk
attr title  "packets sent, count"
scalar scenarioPRJP1.node[2].udp 	sentPk:sum(packetBytes) 	1355640
attr interpolationmode  none
attr source  sentPk
attr title  "packets sent, sum(packetBytes)"
scalar scenarioPRJP1.node[2].networkLayer.arp 	failedARPResolution:count 	0
attr title  "ARP failed resolutions, count"
scalar scenarioPRJP1.node[2].networkLayer.arp 	completedARPResolution:count 	23
attr title  "ARP completed resolutions, count"
scalar scenarioPRJP1.node[2].networkLayer.arp 	initiatedARPResolution:count 	8
attr title  "ARP initiated resolutions, count"
scalar scenarioPRJP1.node[2].networkLayer.arp 	sentReply:count 	10
attr title  "ARP replies sent, count"
scalar scenarioPRJP1.node[2].networkLayer.arp 	sentReq:count 	8
attr title  "ARP request sent, count"
scalar scenarioPRJP1.node[2].mobility 	startTime 	0.1
scalar scenarioPRJP1.node[2].mobility 	totalTime 	949.9
scalar scenarioPRJP1.node[2].mobility 	stopTime 	950
scalar scenarioPRJP1.node[2].mobility 	minSpeed 	2.4754897981959e-13
scalar scenarioPRJP1.node[2].mobility 	maxSpeed 	18.186971959879
scalar scenarioPRJP1.node[2].mobility 	totalDistance 	9299.2344663485
scalar scenarioPRJP1.node[2].mobility 	totalCO2Emission 	2598.5704776556
scalar scenarioPRJP1.node[2].wlan[0].mgmt 	dataQueueLen:max 	100
attr interpolationmode  sample-hold
attr title  "data queue length, max"
scalar scenarioPRJP1.node[2].wlan[0].mgmt 	dataQueueLen:timeavg 	0.028055291648258
attr interpolationmode  sample-hold
attr title  "data queue length, timeavg"
scalar scenarioPRJP1.node[2].wlan[0].mgmt 	dropPkByQueue:count 	18
attr interpolationmode  none
attr source  dropPkByQueue
attr title  "packets dropped by queue, count"
scalar scenarioPRJP1.node[2].wlan[0].mgmt 	dropPkByQueue:sum(packetBytes) 	10368
attr interpolationmode  none
attr source  dropPkByQueue
attr title  "packets dropped by queue, sum(packetBytes)"
scalar scenarioPRJP1.node[2].wlan[0].mac 	"number of received packets" 	2808
scalar scenarioPRJP1.node[2].wlan[0].mac 	"number of collisions" 	345
scalar scenarioPRJP1.node[2].wlan[0].mac 	"number of internal collisions" 	0
scalar scenarioPRJP1.node[2].wlan[0].mac 	"number of retry for AC 0" 	2251
scalar scenarioPRJP1.node[2].wlan[0].mac 	"number of retry for AC 1" 	0
scalar scenarioPRJP1.node[2].wlan[0].mac 	"number of retry for AC 2" 	0
scalar scenarioPRJP1.node[2].wlan[0].mac 	"number of retry for AC 3" 	0
scalar scenarioPRJP1.node[2].wlan[0].mac 	"sent and received bits" 	3405184
scalar scenarioPRJP1.node[2].wlan[0].mac 	"sent packet within AC 0" 	527
scalar scenarioPRJP1.node[2].wlan[0].mac 	"sent packet within AC 1" 	0
scalar scenarioPRJP1.node[2].wlan[0].mac 	"sent packet within AC 2" 	0
scalar scenarioPRJP1.node[2].wlan[0].mac 	"sent packet within AC 3" 	0
scalar scenarioPRJP1.node[2].wlan[0].mac 	"sent in TXOP " 	0
scalar scenarioPRJP1.node[2].wlan[0].mac 	"sentWithoutRetry AC 0" 	505
scalar scenarioPRJP1.node[2].wlan[0].mac 	"sentWithoutRetry AC 1" 	0
scalar scenarioPRJP1.node[2].wlan[0].mac 	"sentWithoutRetry AC 2" 	0
scalar scenarioPRJP1.node[2].wlan[0].mac 	"sentWithoutRetry AC 3" 	0
scalar scenarioPRJP1.node[2].wlan[0].mac 	"numGivenUp AC 0" 	365
scalar scenarioPRJP1.node[2].wlan[0].mac 	"numGivenUp AC 1" 	0
scalar scenarioPRJP1.node[2].wlan[0].mac 	"numGivenUp AC 2" 	0
scalar scenarioPRJP1.node[2].wlan[0].mac 	"numGivenUp AC 3" 	0
scalar scenarioPRJP1.node[2].wlan[0].mac 	"numDropped AC 0" 	168
scalar scenarioPRJP1.node[2].wlan[0].mac 	"numDropped AC 1" 	0
scalar scenarioPRJP1.node[2].wlan[0].mac 	"numDropped AC 2" 	0
scalar scenarioPRJP1.node[2].wlan[0].mac 	"numDropped AC 3" 	0
scalar scenarioPRJP1.node[2].wlan[0].mac 	rcvdPkFromLL:count 	9844
attr interpolationmode  none
attr source  packetReceivedFromLower
attr title  "packets received from lower layer, count"
scalar scenarioPRJP1.node[2].wlan[0].mac 	rcvdPkFromLL:sum(packetBytes) 	2553658
attr interpolationmode  none
attr source  packetReceivedFromLower
attr title  "packets received from lower layer, sum(packetBytes)"
scalar scenarioPRJP1.node[2].wlan[0].mac 	sentDownPk:count 	7477
attr interpolationmode  none
attr source  packetSentToLower
attr title  "packets sent to lower layer, count"
scalar scenarioPRJP1.node[2].wlan[0].mac 	sentDownPk:sum(packetBytes) 	1908804
attr interpolationmode  none
attr source  packetSentToLower
attr title  "packets sent to lower layer, sum(packetBytes)"
scalar scenarioPRJP1.node[2].wlan[0].mac 	rcvdPkFromHL:count 	2586
attr interpolationmode  none
attr source  packetReceivedFromUpper
attr title  "packets received from higher layer, count"
scalar scenarioPRJP1.node[2].wlan[0].mac 	rcvdPkFromHL:sum(packetBytes) 	711908
attr interpolationmode  none
attr source  packetReceivedFromUpper
attr title  "packets received from higher layer, sum(packetBytes)"
scalar scenarioPRJP1.node[2].wlan[0].mac 	passedUpPk:count 	2315
attr interpolationmode  none
attr source  packetSentToUpper
attr title  "packets passed to higher layer, count"
scalar scenarioPRJP1.node[2].wlan[0].mac 	passedUpPk:sum(packetBytes) 	629532
attr interpolationmode  none
attr source  packetSentToUpper
attr title  "packets passed to higher layer, sum(packetBytes)"
statistic scenarioPRJP1.node[2].wlan[0].radio 	radioChannel:histogram
field count 1
field mean 3
field stddev -nan
field sum 3
field sqrsum 9
field min 3
field max 3
attr interpolationmode  sample-hold
attr source  radioChannelChanged
attr title  "Radio channel, histogram"
bin	-INF	0
bin	2	0
bin	3	1
bin	4	0
scalar scenarioPRJP1.node[2].wlan[0].radio 	transmissionState:count 	29908
attr interpolationmode  sample-hold
attr source  transmissionStateChanged
attr title  "Radio transmission state, count"
scalar scenarioPRJP1.node[2].wlan[0].radio 	receptionState:count 	34707
attr interpolationmode  sample-hold
attr source  receptionStateChanged
attr title  "Radio reception state, count"
scalar scenarioPRJP1.node[2].wlan[0].radio 	radioMode:count 	14956
attr interpolationmode  sample-hold
attr source  radioModeChanged
attr title  "Radio mode, count"
statistic scenarioPRJP1.node[2].wlan[0].radio 	symbolErrorRate:histogram
field count 0
field mean -nan
field stddev -nan
field sum 0
field sqrsum 0
field min -nan
field max -nan
attr source  symbolErrorRate
attr title  "Symbol error rate, histogram"
bin	-INF	0
bin	-0.5	0
bin	-0.46666666666667	0
bin	-0.43333333333333	0
bin	-0.4	0
bin	-0.36666666666667	0
bin	-0.33333333333333	0
bin	-0.3	0
bin	-0.26666666666667	0
bin	-0.23333333333333	0
bin	-0.2	0
bin	-0.16666666666667	0
bin	-0.13333333333333	0
bin	-0.1	0
bin	-0.066666666666667	0
bin	-0.033333333333333	0
bin	0	0
bin	0.033333333333333	0
bin	0.066666666666667	0
bin	0.1	0
bin	0.13333333333333	0
bin	0.16666666666667	0
bin	0.2	0
bin	0.23333333333333	0
bin	0.26666666666667	0
bin	0.3	0
bin	0.33333333333333	0
bin	0.36666666666667	0
bin	0.4	0
bin	0.43333333333333	0
bin	0.46666666666667	0
bin	0.5	0
statistic scenarioPRJP1.node[2].wlan[0].radio 	bitErrorRate:histogram
field count 0
field mean -nan
field stddev -nan
field sum 0
field sqrsum 0
field min -nan
field max -nan
attr source  bitErrorRate
attr title  "Bit error rate, histogram"
bin	-INF	0
bin	-0.5	0
bin	-0.46666666666667	0
bin	-0.43333333333333	0
bin	-0.4	0
bin	-0.36666666666667	0
bin	-0.33333333333333	0
bin	-0.3	0
bin	-0.26666666666667	0
bin	-0.23333333333333	0
bin	-0.2	0
bin	-0.16666666666667	0
bin	-0.13333333333333	0
bin	-0.1	0
bin	-0.066666666666667	0
bin	-0.033333333333333	0
bin	0	0
bin	0.033333333333333	0
bin	0.066666666666667	0
bin	0.1	0
bin	0.13333333333333	0
bin	0.16666666666667	0
bin	0.2	0
bin	0.23333333333333	0
bin	0.26666666666667	0
bin	0.3	0
bin	0.33333333333333	0
bin	0.36666666666667	0
bin	0.4	0
bin	0.43333333333333	0
bin	0.46666666666667	0
bin	0.5	0
statistic scenarioPRJP1.node[2].wlan[0].radio 	packetErrorRate:histogram
field count 9844
field mean 0.034681134809248
field stddev 0.18276435914456
field sum 341.40109106224
field sqrsum 340.62404567552
field min 0
field max 1
attr source  packetErrorRate
attr title  "Packet error rate, histogram"
bin	-INF	0
bin	-0.5	0
bin	-0.46666666666667	0
bin	-0.43333333333333	0
bin	-0.4	0
bin	-0.36666666666667	0
bin	-0.33333333333333	0
bin	-0.3	0
bin	-0.26666666666667	0
bin	-0.23333333333333	0
bin	-0.2	0
bin	-0.16666666666667	0
bin	-0.13333333333333	0
bin	-0.1	0
bin	-0.066666666666667	0
bin	-0.033333333333333	0
bin	0	9499
bin	0.033333333333333	1
bin	0.066666666666667	1
bin	0.1	0
bin	0.13333333333333	0
bin	0.16666666666667	0
bin	0.2	0
bin	0.23333333333333	2
bin	0.26666666666667	0
bin	0.3	0
bin	0.33333333333333	0
bin	0.36666666666667	0
bin	0.4	0
bin	0.43333333333333	0
bin	0.46666666666667	0
bin	0.5	341
statistic scenarioPRJP1.node[2].wlan[0].radio 	minSNIR:histogram
field count 9844
field mean 23559.349709288
field stddev 149733.27287217
field sum 231918238.53823
field sqrsum 2.2614442461403e+14
field min 0.2749219384914
field max 4864152.7858274
attr source  minSNIR
attr title  "Min SNIR, histogram"
bin	-INF	0
bin	-940.92154915811	0
bin	-813.40622993239	0
bin	-685.89091070668	0
bin	-558.37559148096	0
bin	-430.86027225525	0
bin	-303.34495302953	0
bin	-175.82963380381	0
bin	-48.314314578098	439
bin	79.201004647618	3019
bin	206.71632387333	2780
bin	334.23164309905	984
bin	461.74696232477	274
bin	589.26228155048	271
bin	716.7776007762	136
bin	844.29292000191	134
bin	971.80823922763	112
bin	1099.3235584533	67
bin	1226.8388776791	56
bin	1354.3541969048	15
bin	1481.8695161305	16
bin	1609.3848353562	21
bin	1736.9001545819	30
bin	1864.4154738076	17
bin	1991.9307930334	69
bin	2119.4461122591	13
bin	2246.9614314848	11
bin	2374.4767507105	81
bin	2501.9920699362	6
bin	2629.5073891619	11
bin	2757.0227083877	10
bin	2884.5380276134	1272
scalar scenarioPRJP1.node[2].lo0.lo 	droppedPkBitError:count 	0
attr interpolationmode  none
attr source  dropPkBitError
attr title  "packets dropped/bit error, count"
scalar scenarioPRJP1.node[2].lo0.lo 	droppedPkBitError:sum(packetBytes) 	0
attr interpolationmode  none
attr source  dropPkBitError
attr title  "packets dropped/bit error, sum(packetBytes)"
scalar scenarioPRJP1.node[2].lo0.lo 	rcvdPkFromHL:count 	0
attr interpolationmode  none
attr source  packetReceivedFromUpper
attr title  "packets received from higher layer, count"
scalar scenarioPRJP1.node[2].lo0.lo 	rcvdPkFromHL:sum(packetBytes) 	0
attr interpolationmode  none
attr source  packetReceivedFromUpper
attr title  "packets received from higher layer, sum(packetBytes)"
scalar scenarioPRJP1.node[2].lo0.lo 	passedUpPk:count 	0
attr interpolationmode  none
attr source  packetSentToUpper
attr title  "packets passed to higher layer, count"
scalar scenarioPRJP1.node[2].lo0.lo 	passedUpPk:sum(packetBytes) 	0
attr interpolationmode  none
attr source  packetSentToUpper
attr title  "packets passed to higher layer, sum(packetBytes)"
scalar scenarioPRJP1.node[6].app 	"Total sent" 	2610
scalar scenarioPRJP1.node[6].app 	"Total received" 	172
scalar scenarioPRJP1.node[6].app 	"Total deleted" 	218
scalar scenarioPRJP1.node[6].app 	dropPk:count 	218
attr interpolationmode  none
attr source  dropPk
attr title  "packets dropped, count"
scalar scenarioPRJP1.node[6].app 	dropPk:sum(packetBytes) 	111616
attr interpolationmode  none
attr source  dropPk
attr title  "packets dropped, sum(packetBytes)"
scalar scenarioPRJP1.node[6].app 	outOfOrderPk:count 	398
attr interpolationmode  none
attr source  outOfOrderPk
attr title  "packets received out of order, count"
scalar scenarioPRJP1.node[6].app 	outOfOrderPk:sum(packetBytes) 	203776
attr interpolationmode  none
attr source  outOfOrderPk
attr title  "packets received out of order, sum(packetBytes)"
scalar scenarioPRJP1.node[6].app 	rcvdPk:count 	172
attr interpolationmode  none
attr source  rcvdPk
attr title  "packets received, count"
scalar scenarioPRJP1.node[6].app 	rcvdPk:sum(packetBytes) 	88064
attr interpolationmode  none
attr source  rcvdPk
attr title  "packets received, sum(packetBytes)"
statistic scenarioPRJP1.node[6].app 	endToEndDelay:histogram
field count 172
field mean 0.90172095295944
field stddev 2.9632266922917
field sum 155.09600390902
field sqrsum 1641.3551419597
field min 0.000945011007
field max 17.694075502804
attr interpolationmode  none
attr source  messageAge(rcvdPk)
attr title  "delay, histogram"
attr unit  s
bin	-INF	0
bin	-7.4058423741315	0
bin	-6.4182707227797	0
bin	-5.4306990714279	0
bin	-4.4431274200761	0
bin	-3.4555557687243	0
bin	-2.4679841173725	0
bin	-1.4804124660207	0
bin	-0.4928408146689	147
bin	0.4947308366829	5
bin	1.4823024880347	2
bin	2.4698741393865	6
bin	3.4574457907383	0
bin	4.4450174420901	0
bin	5.4325890934419	2
bin	6.4201607447937	1
bin	7.4077323961455	2
bin	8.3953040474973	1
bin	9.3828756988491	0
bin	10.370447350201	1
bin	11.358019001553	2
bin	12.345590652904	0
bin	13.333162304256	0
bin	14.320733955608	1
bin	15.30830560696	0
bin	16.295877258312	1
bin	17.283448909663	1
bin	18.271020561015	0
bin	19.258592212367	0
bin	20.246163863719	0
bin	21.233735515071	0
bin	22.221307166422	0
scalar scenarioPRJP1.node[6].app 	sentPk:count 	2610
attr interpolationmode  none
attr source  sentPk
attr title  "packets sent, count"
scalar scenarioPRJP1.node[6].app 	sentPk:sum(packetBytes) 	1336320
attr interpolationmode  none
attr source  sentPk
attr title  "packets sent, sum(packetBytes)"
scalar scenarioPRJP1.node[6].udp 	droppedPkBadChecksum:count 	0
attr interpolationmode  none
attr title  "packets dropped (checksum error), count"
scalar scenarioPRJP1.node[6].udp 	droppedPkWrongPort:count 	0
attr interpolationmode  none
attr title  "packets dropped (wrong port), count"
scalar scenarioPRJP1.node[6].udp 	passedUpPk:count 	788
attr interpolationmode  none
attr title  "packets passed up, count"
scalar scenarioPRJP1.node[6].udp 	rcvdPk:count 	788
attr interpolationmode  none
attr source  rcvdPk
attr title  "packets received, count"
scalar scenarioPRJP1.node[6].udp 	rcvdPk:sum(packetBytes) 	409760
attr interpolationmode  none
attr source  rcvdPk
attr title  "packets received, sum(packetBytes)"
scalar scenarioPRJP1.node[6].udp 	sentPk:count 	2610
attr interpolationmode  none
attr source  sentPk
attr title  "packets sent, count"
scalar scenarioPRJP1.node[6].udp 	sentPk:sum(packetBytes) 	1357200
attr interpolationmode  none
attr source  sentPk
attr title  "packets sent, sum(packetBytes)"
scalar scenarioPRJP1.node[6].networkLayer.arp 	failedARPResolution:count 	0
attr title  "ARP failed resolutions, count"
scalar scenarioPRJP1.node[6].networkLayer.arp 	completedARPResolution:count 	19
attr title  "ARP completed resolutions, count"
scalar scenarioPRJP1.node[6].networkLayer.arp 	initiatedARPResolution:count 	7
attr title  "ARP initiated resolutions, count"
scalar scenarioPRJP1.node[6].networkLayer.arp 	sentReply:count 	9
attr title  "ARP replies sent, count"
scalar scenarioPRJP1.node[6].networkLayer.arp 	sentReq:count 	7
attr title  "ARP request sent, count"
scalar scenarioPRJP1.node[6].mobility 	startTime 	2.5
scalar scenarioPRJP1.node[6].mobility 	totalTime 	947.5
scalar scenarioPRJP1.node[6].mobility 	stopTime 	950
scalar scenarioPRJP1.node[6].mobility 	minSpeed 	2.4759095649568e-13
scalar scenarioPRJP1.node[6].mobility 	maxSpeed 	13.192363928475
scalar scenarioPRJP1.node[6].mobility 	totalDistance 	7706.1055113912
scalar scenarioPRJP1.node[6].mobility 	totalCO2Emission 	2008.1559165943
scalar scenarioPRJP1.node[6].wlan[0].mgmt 	dataQueueLen:max 	100
attr interpolationmode  sample-hold
attr title  "data queue length, max"
scalar scenarioPRJP1.node[6].wlan[0].mgmt 	dataQueueLen:timeavg 	0.050204074023657
attr interpolationmode  sample-hold
attr title  "data queue length, timeavg"
scalar scenarioPRJP1.node[6].wlan[0].mgmt 	dropPkByQueue:count 	14
attr interpolationmode  none
attr source  dropPkByQueue
attr title  "packets dropped by queue, count"
scalar scenarioPRJP1.node[6].wlan[0].mgmt 	dropPkByQueue:sum(packetBytes) 	8064
attr interpolationmode  none
attr source  dropPkByQueue
attr title  "packets dropped by queue, sum(packetBytes)"
scalar scenarioPRJP1.node[6].wlan[0].mac 	"number of received packets" 	3278
scalar scenarioPRJP1.node[6].wlan[0].mac 	"number of collisions" 	26
scalar scenarioPRJP1.node[6].wlan[0].mac 	"number of internal collisions" 	0
scalar scenarioPRJP1.node[6].wlan[0].mac 	"number of retry for AC 0" 	2179
scalar scenarioPRJP1.node[6].wlan[0].mac 	"number of retry for AC 1" 	0
scalar scenarioPRJP1.node[6].wlan[0].mac 	"number of retry for AC 2" 	0
scalar scenarioPRJP1.node[6].wlan[0].mac 	"number of retry for AC 3" 	0
scalar scenarioPRJP1.node[6].wlan[0].mac 	"sent and received bits" 	2446336
scalar scenarioPRJP1.node[6].wlan[0].mac 	"sent packet within AC 0" 	336
scalar scenarioPRJP1.node[6].wlan[0].mac 	"sent packet within AC 1" 	0
scalar scenarioPRJP1.node[6].wlan[0].mac 	"sent packet within AC 2" 	0
scalar scenarioPRJP1.node[6].wlan[0].mac 	"sent packet within AC 3" 	0
scalar scenarioPRJP1.node[6].wlan[0].mac 	"sent in TXOP " 	0
scalar scenarioPRJP1.node[6].wlan[0].mac 	"sentWithoutRetry AC 0" 	330
scalar scenarioPRJP1.node[6].wlan[0].mac 	"sentWithoutRetry AC 1" 	0
scalar scenarioPRJP1.node[6].wlan[0].mac 	"sentWithoutRetry AC 2" 	0
scalar scenarioPRJP1.node[6].wlan[0].mac 	"sentWithoutRetry AC 3" 	0
scalar scenarioPRJP1.node[6].wlan[0].mac 	"numGivenUp AC 0" 	361
scalar scenarioPRJP1.node[6].wlan[0].mac 	"numGivenUp AC 1" 	0
scalar scenarioPRJP1.node[6].wlan[0].mac 	"numGivenUp AC 2" 	0
scalar scenarioPRJP1.node[6].wlan[0].mac 	"numGivenUp AC 3" 	0
scalar scenarioPRJP1.node[6].wlan[0].mac 	"numDropped AC 0" 	163
scalar scenarioPRJP1.node[6].wlan[0].mac 	"numDropped AC 1" 	0
scalar scenarioPRJP1.node[6].wlan[0].mac 	"numDropped AC 2" 	0
scalar scenarioPRJP1.node[6].wlan[0].mac 	"numDropped AC 3" 	0
scalar scenarioPRJP1.node[6].wlan[0].mac 	rcvdPkFromLL:count 	11361
attr interpolationmode  none
attr source  packetReceivedFromLower
attr title  "packets received from lower layer, count"
scalar scenarioPRJP1.node[6].wlan[0].mac 	rcvdPkFromLL:sum(packetBytes) 	3046936
attr interpolationmode  none
attr source  packetReceivedFromLower
attr title  "packets received from lower layer, sum(packetBytes)"
scalar scenarioPRJP1.node[6].wlan[0].mac 	sentDownPk:count 	7536
attr interpolationmode  none
attr source  packetSentToLower
attr title  "packets sent to lower layer, count"
scalar scenarioPRJP1.node[6].wlan[0].mac 	sentDownPk:sum(packetBytes) 	1744232
attr interpolationmode  none
attr source  packetSentToLower
attr title  "packets sent to lower layer, sum(packetBytes)"
scalar scenarioPRJP1.node[6].wlan[0].mac 	rcvdPkFromHL:count 	2242
attr interpolationmode  none
attr source  packetReceivedFromUpper
attr title  "packets received from higher layer, count"
scalar scenarioPRJP1.node[6].wlan[0].mac 	rcvdPkFromHL:sum(packetBytes) 	585832
attr interpolationmode  none
attr source  packetReceivedFromUpper
attr title  "packets received from higher layer, sum(packetBytes)"
scalar scenarioPRJP1.node[6].wlan[0].mac 	passedUpPk:count 	2260
attr interpolationmode  none
attr source  packetSentToUpper
attr title  "packets passed to higher layer, count"
[...]
scalar scenarioPRJP1.node[4].wlan[0].mac 	passedUpPk:sum(packetBytes) 	407096
attr interpolationmode  none
attr source  packetSentToUpper
attr title  "packets passed to higher layer, sum(packetBytes)"
statistic scenarioPRJP1.node[4].wlan[0].radio 	radioChannel:histogram
field count 1
field mean 3
field stddev -nan
field sum 3
field sqrsum 9
field min 3
field max 3
attr interpolationmode  sample-hold
attr source  radioChannelChanged
attr title  "Radio channel, histogram"
bin	-INF	0
bin	2	0
bin	3	1
bin	4	0
scalar scenarioPRJP1.node[4].wlan[0].radio 	transmissionState:count 	22104
attr interpolationmode  sample-hold
attr source  transmissionStateChanged
attr title  "Radio transmission state, count"
scalar scenarioPRJP1.node[4].wlan[0].radio 	receptionState:count 	26387
attr interpolationmode  sample-hold
attr source  receptionStateChanged
attr title  "Radio reception state, count"
scalar scenarioPRJP1.node[4].wlan[0].radio 	radioMode:count 	11054
attr interpolationmode  sample-hold
attr source  radioModeChanged
attr title  "Radio mode, count"
statistic scenarioPRJP1.node[4].wlan[0].radio 	symbolErrorRate:histogram
field count 0
field mean -nan
field stddev -nan
field sum 0
field sqrsum 0
field min -nan
field max -nan
attr source  symbolErrorRate
attr title  "Symbol error rate, histogram"
bin	-INF	0
bin	-0.5	0
bin	-0.46666666666667	0
bin	-0.43333333333333	0
bin	-0.4	0
bin	-0.36666666666667	0
bin	-0.33333333333333	0
bin	-0.3	0
bin	-0.26666666666667	0
bin	-0.23333333333333	0
bin	-0.2	0
bin	-0.16666666666667	0
bin	-0.13333333333333	0
bin	-0.1	0
bin	-0.066666666666667	0
bin	-0.033333333333333	0
bin	0	0
bin	0.033333333333333	0
bin	0.066666666666667	0
bin	0.1	0
bin	0.13333333333333	0
bin	0.16666666666667	0
bin	0.2	0
bin	0.23333333333333	0
bin	0.26666666666667	0
bin	0.3	0
bin	0.33333333333333	0
bin	0.36666666666667	0
bin	0.4	0
bin	0.43333333333333	0
bin	0.46666666666667	0
bin	0.5	0
statistic scenarioPRJP1.node[4].wlan[0].radio 	bitErrorRate:histogram
field count 0
field mean -nan
field stddev -nan
field sum 0
field sqrsum 0
field min -nan
field max -nan
attr source  bitErrorRate
attr title  "Bit error rate, histogram"
bin	-INF	0
bin	-0.5	0
bin	-0.46666666666667	0
bin	-0.43333333333333	0
bin	-0.4	0
bin	-0.36666666666667	0
bin	-0.33333333333333	0
bin	-0.3	0
bin	-0.26666666666667	0
bin	-0.23333333333333	0
bin	-0.2	0
bin	-0.16666666666667	0
bin	-0.13333333333333	0
bin	-0.1	0
bin	-0.066666666666667	0
bin	-0.033333333333333	0
bin	0	0
bin	0.033333333333333	0
bin	0.066666666666667	0
bin	0.1	0
bin	0.13333333333333	0
bin	0.16666666666667	0
bin	0.2	0
bin	0.23333333333333	0
bin	0.26666666666667	0
bin	0.3	0
bin	0.33333333333333	0
bin	0.36666666666667	0
bin	0.4	0
bin	0.43333333333333	0
bin	0.46666666666667	0
bin	0.5	0
statistic scenarioPRJP1.node[4].wlan[0].radio 	packetErrorRate:histogram
field count 7649
field mean 0.010971248734009
field stddev 0.10412350809727
field sum 83.919081566434
field sqrsum 83.838056486911
field min 0
field max 1
attr source  packetErrorRate
attr title  "Packet error rate, histogram"
bin	-INF	85
bin	-2.3439028495886e-12	0
bin	-2.0313824696435e-12	0
bin	-1.7188620896983e-12	0
bin	-1.4063417097532e-12	0
bin	-1.093821329808e-12	0
bin	-7.8130094986288e-13	0
bin	-4.6878056991773e-13	0
bin	-1.5626018997258e-13	7555
bin	1.5626018997258e-13	1
bin	4.6878056991773e-13	0
bin	7.8130094986288e-13	1
bin	1.093821329808e-12	0
bin	1.4063417097532e-12	1
bin	1.7188620896983e-12	0
bin	2.0313824696435e-12	0
bin	2.3439028495886e-12	0
bin	2.6564232295338e-12	0
bin	2.9689436094789e-12	0
bin	3.2814639894241e-12	0
bin	3.5939843693692e-12	0
bin	3.9065047493144e-12	0
bin	4.2190251292595e-12	0
bin	4.5315455092047e-12	1
bin	4.8440658891498e-12	0
bin	5.156586269095e-12	0
bin	5.4691066490401e-12	0
bin	5.7816270289853e-12	0
bin	6.0941474089304e-12	0
bin	6.4066677888756e-12	0
bin	6.7191881688207e-12	0
bin	7.0317085487659e-12	5
statistic scenarioPRJP1.node[4].wlan[0].radio 	minSNIR:histogram
field count 7649
field mean 11980.873482406
field stddev 105892.09030749
field sum 91641701.266927
field sqrsum 86856002500140
field min 0.073360245359502
field max 4864152.7858274
attr source  minSNIR
attr title  "Min SNIR, histogram"
bin	-INF	0
bin	-1877.9991239285	0
bin	-1626.7656562226	0
bin	-1375.5321885166	0
bin	-1124.2987208107	0
bin	-873.0652531047	0
bin	-621.83178539874	0
bin	-370.59831769278	0
bin	-119.36484998682	348
bin	131.86861771914	4957
bin	383.1020854251	586
bin	634.33555313105	253
bin	885.56902083701	68
bin	1136.802488543	83
bin	1388.0359562489	18
bin	1639.2694239549	92
bin	1890.5028916608	66
bin	2141.7363593668	21
bin	2392.9698270728	20
bin	2644.2032947787	17
bin	2895.4367624847	37
bin	3146.6702301906	19
bin	3397.9036978966	11
bin	3649.1371656026	17
bin	3900.3706333085	10
bin	4151.6041010145	4
bin	4402.8375687204	2
bin	4654.0710364264	3
bin	4905.3045041323	4
bin	5156.5379718383	9
bin	5407.7714395443	7
bin	5659.0049072502	997
scalar scenarioPRJP1.node[4].lo0.lo 	droppedPkBitError:count 	0
attr interpolationmode  none
attr source  dropPkBitError
attr title  "packets dropped/bit error, count"
scalar scenarioPRJP1.node[4].lo0.lo 	droppedPkBitError:sum(packetBytes) 	0
attr interpolationmode  none
attr source  dropPkBitError
attr title  "packets dropped/bit error, sum(packetBytes)"
scalar scenarioPRJP1.node[4].lo0.lo 	rcvdPkFromHL:count 	0
attr interpolationmode  none
attr source  packetReceivedFromUpper
attr title  "packets received from higher layer, count"
scalar scenarioPRJP1.node[4].lo0.lo 	rcvdPkFromHL:sum(packetBytes) 	0
attr interpolationmode  none
attr source  packetReceivedFromUpper
attr title  "packets received from higher layer, sum(packetBytes)"
scalar scenarioPRJP1.node[4].lo0.lo 	passedUpPk:count 	0
attr interpolationmode  none
attr source  packetSentToUpper
attr title  "packets passed to higher layer, count"
scalar scenarioPRJP1.node[4].lo0.lo 	passedUpPk:sum(packetBytes) 	0
attr interpolationmode  none
attr source  packetSentToUpper
attr title  "packets passed to higher layer, sum(packetBytes)"
scalar scenarioPRJP1.node[8].app 	"Total sent" 	2627
scalar scenarioPRJP1.node[8].app 	"Total received" 	167
scalar scenarioPRJP1.node[8].app 	"Total deleted" 	0
scalar scenarioPRJP1.node[8].app 	dropPk:count 	0
attr interpolationmode  none
attr source  dropPk
attr title  "packets dropped, count"
scalar scenarioPRJP1.node[8].app 	dropPk:sum(packetBytes) 	0
attr interpolationmode  none
attr source  dropPk
attr title  "packets dropped, sum(packetBytes)"
scalar scenarioPRJP1.node[8].app 	outOfOrderPk:count 	205
attr interpolationmode  none
attr source  outOfOrderPk
attr title  "packets received out of order, count"
scalar scenarioPRJP1.node[8].app 	outOfOrderPk:sum(packetBytes) 	104960
attr interpolationmode  none
attr source  outOfOrderPk
attr title  "packets received out of order, sum(packetBytes)"
scalar scenarioPRJP1.node[8].app 	rcvdPk:count 	167
attr interpolationmode  none
attr source  rcvdPk
attr title  "packets received, count"
scalar scenarioPRJP1.node[8].app 	rcvdPk:sum(packetBytes) 	85504
attr interpolationmode  none
attr source  rcvdPk
attr title  "packets received, sum(packetBytes)"
statistic scenarioPRJP1.node[8].app 	endToEndDelay:histogram
field count 167
field mean 0.042214301783892
field stddev 0.37502961171515
field sum 7.04978839791
field sqrsum 23.645038699036
field min 0.000945015134
field max 4.305079611889
attr interpolationmode  none
attr source  messageAge(rcvdPk)
attr title  "delay, histogram"
attr unit  s
bin	-INF	0
bin	-2.1511222832435	0
bin	-1.8641799767932	0
bin	-1.5772376703428	0
bin	-1.2902953638925	0
bin	-1.0033530574422	0
bin	-0.71641075099183	0
bin	-0.4294684445415	0
bin	-0.14252613809117	164
bin	0.14441616835917	1
bin	0.4313584748095	0
bin	0.71830078125983	0
bin	1.0052430877102	0
bin	1.2921853941605	0
bin	1.5791277006108	0
bin	1.8660700070612	0
bin	2.1530123135115	1
bin	2.4399546199618	0
bin	2.7268969264122	0
bin	3.0138392328625	0
bin	3.3007815393128	0
bin	3.5877238457632	0
bin	3.8746661522135	0
bin	4.1616084586638	1
bin	4.4485507651142	0
bin	4.7354930715645	0
bin	5.0224353780148	0
bin	5.3093776844652	0
bin	5.5963199909155	0
bin	5.8832622973658	0
bin	6.1702046038162	0
bin	6.4571469102665	0
scalar scenarioPRJP1.node[8].app 	sentPk:count 	2627
attr interpolationmode  none
attr source  sentPk
attr title  "packets sent, count"
scalar scenarioPRJP1.node[8].app 	sentPk:sum(packetBytes) 	1345024
attr interpolationmode  none
attr source  sentPk
attr title  "packets sent, sum(packetBytes)"
scalar scenarioPRJP1.node[8].udp 	droppedPkBadChecksum:count 	0
attr interpolationmode  none
attr title  "packets dropped (checksum error), count"
scalar scenarioPRJP1.node[8].udp 	droppedPkWrongPort:count 	0
attr interpolationmode  none
attr title  "packets dropped (wrong port), count"
scalar scenarioPRJP1.node[8].udp 	passedUpPk:count 	372
attr interpolationmode  none
attr title  "packets passed up, count"
scalar scenarioPRJP1.node[8].udp 	rcvdPk:count 	372
attr interpolationmode  none
attr source  rcvdPk
attr title  "packets received, count"
scalar scenarioPRJP1.node[8].udp 	rcvdPk:sum(packetBytes) 	193440
attr interpolationmode  none
attr source  rcvdPk
attr title  "packets received, sum(packetBytes)"
scalar scenarioPRJP1.node[8].udp 	sentPk:count 	2627
attr interpolationmode  none
attr source  sentPk
attr title  "packets sent, count"
scalar scenarioPRJP1.node[8].udp 	sentPk:sum(packetBytes) 	1366040
attr interpolationmode  none
attr source  sentPk
attr title  "packets sent, sum(packetBytes)"
scalar scenarioPRJP1.node[8].networkLayer.arp 	failedARPResolution:count 	0
attr title  "ARP failed resolutions, count"
scalar scenarioPRJP1.node[8].networkLayer.arp 	completedARPResolution:count 	21
attr title  "ARP completed resolutions, count"
scalar scenarioPRJP1.node[8].networkLayer.arp 	initiatedARPResolution:count 	8
attr title  "ARP initiated resolutions, count"
scalar scenarioPRJP1.node[8].networkLayer.arp 	sentReply:count 	13
attr title  "ARP replies sent, count"
scalar scenarioPRJP1.node[8].networkLayer.arp 	sentReq:count 	8
attr title  "ARP request sent, count"
scalar scenarioPRJP1.node[8].mobility 	startTime 	2.5
scalar scenarioPRJP1.node[8].mobility 	totalTime 	947.5
scalar scenarioPRJP1.node[8].mobility 	stopTime 	950
scalar scenarioPRJP1.node[8].mobility 	minSpeed 	2.4755458052621e-13
scalar scenarioPRJP1.node[8].mobility 	maxSpeed 	18.489036761208
scalar scenarioPRJP1.node[8].mobility 	totalDistance 	8480.7191347794
scalar scenarioPRJP1.node[8].mobility 	totalCO2Emission 	2414.3745080208
scalar scenarioPRJP1.node[8].wlan[0].mgmt 	dataQueueLen:max 	100
attr interpolationmode  sample-hold
attr title  "data queue length, max"
scalar scenarioPRJP1.node[8].wlan[0].mgmt 	dataQueueLen:timeavg 	0.012657379249962
attr interpolationmode  sample-hold
attr title  "data queue length, timeavg"
scalar scenarioPRJP1.node[8].wlan[0].mgmt 	dropPkByQueue:count 	8
attr interpolationmode  none
attr source  dropPkByQueue
attr title  "packets dropped by queue, count"
scalar scenarioPRJP1.node[8].wlan[0].mgmt 	dropPkByQueue:sum(packetBytes) 	4608
attr interpolationmode  none
attr source  dropPkByQueue
attr title  "packets dropped by queue, sum(packetBytes)"
scalar scenarioPRJP1.node[8].wlan[0].mac 	"number of received packets" 	952
scalar scenarioPRJP1.node[8].wlan[0].mac 	"number of collisions" 	13
scalar scenarioPRJP1.node[8].wlan[0].mac 	"number of internal collisions" 	0
scalar scenarioPRJP1.node[8].wlan[0].mac 	"number of retry for AC 0" 	1514
scalar scenarioPRJP1.node[8].wlan[0].mac 	"number of retry for AC 1" 	0
scalar scenarioPRJP1.node[8].wlan[0].mac 	"number of retry for AC 2" 	0
scalar scenarioPRJP1.node[8].wlan[0].mac 	"number of retry for AC 3" 	0
scalar scenarioPRJP1.node[8].wlan[0].mac 	"sent and received bits" 	3002336
scalar scenarioPRJP1.node[8].wlan[0].mac 	"sent packet within AC 0" 	444
scalar scenarioPRJP1.node[8].wlan[0].mac 	"sent packet within AC 1" 	0
scalar scenarioPRJP1.node[8].wlan[0].mac 	"sent packet within AC 2" 	0
scalar scenarioPRJP1.node[8].wlan[0].mac 	"sent packet within AC 3" 	0
scalar scenarioPRJP1.node[8].wlan[0].mac 	"sent in TXOP " 	0
scalar scenarioPRJP1.node[8].wlan[0].mac 	"sentWithoutRetry AC 0" 	443
scalar scenarioPRJP1.node[8].wlan[0].mac 	"sentWithoutRetry AC 1" 	0
scalar scenarioPRJP1.node[8].wlan[0].mac 	"sentWithoutRetry AC 2" 	0
scalar scenarioPRJP1.node[8].wlan[0].mac 	"sentWithoutRetry AC 3" 	0
scalar scenarioPRJP1.node[8].wlan[0].mac 	"numGivenUp AC 0" 	252
scalar scenarioPRJP1.node[8].wlan[0].mac 	"numGivenUp AC 1" 	0
scalar scenarioPRJP1.node[8].wlan[0].mac 	"numGivenUp AC 2" 	0
scalar scenarioPRJP1.node[8].wlan[0].mac 	"numGivenUp AC 3" 	0
scalar scenarioPRJP1.node[8].wlan[0].mac 	"numDropped AC 0" 	94
scalar scenarioPRJP1.node[8].wlan[0].mac 	"numDropped AC 1" 	0
scalar scenarioPRJP1.node[8].wlan[0].mac 	"numDropped AC 2" 	0
scalar scenarioPRJP1.node[8].wlan[0].mac 	"numDropped AC 3" 	0
scalar scenarioPRJP1.node[8].wlan[0].mac 	rcvdPkFromLL:count 	5001
attr interpolationmode  none
attr source  packetReceivedFromLower
attr title  "packets received from lower layer, count"
scalar scenarioPRJP1.node[8].wlan[0].mac 	rcvdPkFromLL:sum(packetBytes) 	824436
attr interpolationmode  none
attr source  packetReceivedFromLower
attr title  "packets received from lower layer, sum(packetBytes)"
scalar scenarioPRJP1.node[8].wlan[0].mac 	sentDownPk:count 	4577
attr interpolationmode  none
attr source  packetSentToLower
attr title  "packets sent to lower layer, count"
scalar scenarioPRJP1.node[8].wlan[0].mac 	sentDownPk:sum(packetBytes) 	1328388
attr interpolationmode  none
attr source  packetSentToLower
attr title  "packets sent to lower layer, sum(packetBytes)"
scalar scenarioPRJP1.node[8].wlan[0].mac 	rcvdPkFromHL:count 	2205
attr interpolationmode  none
attr source  packetReceivedFromUpper
attr title  "packets received from higher layer, count"
scalar scenarioPRJP1.node[8].wlan[0].mac 	rcvdPkFromHL:sum(packetBytes) 	558120
attr interpolationmode  none
attr source  packetReceivedFromUpper
attr title  "packets received from higher layer, sum(packetBytes)"
scalar scenarioPRJP1.node[8].wlan[0].mac 	passedUpPk:count 	1732
attr interpolationmode  none
attr source  packetSentToUpper
attr title  "packets passed to higher layer, count"
scalar scenarioPRJP1.node[8].wlan[0].mac 	passedUpPk:sum(packetBytes) 	346244
attr interpolationmode  none
attr source  packetSentToUpper
attr title  "packets passed to higher layer, sum(packetBytes)"
statistic scenarioPRJP1.node[8].wlan[0].radio 	radioChannel:histogram
field count 1
field mean 3
field stddev -nan
field sum 3
field sqrsum 9
field min 3
field max 3
attr interpolationmode  sample-hold
attr source  radioChannelChanged
attr title  "Radio channel, histogram"
bin	-INF	0
bin	2	0
bin	3	1
bin	4	0
scalar scenarioPRJP1.node[8].wlan[0].radio 	transmissionState:count 	18308
attr interpolationmode  sample-hold
attr source  transmissionStateChanged
attr title  "Radio transmission state, count"
scalar scenarioPRJP1.node[8].wlan[0].radio 	receptionState:count 	19163
attr interpolationmode  sample-hold
attr source  receptionStateChanged
attr title  "Radio reception state, count"
scalar scenarioPRJP1.node[8].wlan[0].radio 	radioMode:count 	9156
attr interpolationmode  sample-hold
attr source  radioModeChanged
attr title  "Radio mode, count"
statistic scenarioPRJP1.node[8].wlan[0].radio 	symbolErrorRate:histogram
field count 0
field mean -nan
field stddev -nan
field sum 0
field sqrsum 0
field min -nan
field max -nan
attr source  symbolErrorRate
attr title  "Symbol error rate, histogram"
bin	-INF	0
bin	-0.5	0
bin	-0.46666666666667	0
bin	-0.43333333333333	0
bin	-0.4	0
bin	-0.36666666666667	0
bin	-0.33333333333333	0
bin	-0.3	0
bin	-0.26666666666667	0
bin	-0.23333333333333	0
bin	-0.2	0
bin	-0.16666666666667	0
bin	-0.13333333333333	0
bin	-0.1	0
bin	-0.066666666666667	0
bin	-0.033333333333333	0
bin	0	0
bin	0.033333333333333	0
bin	0.066666666666667	0
bin	0.1	0
bin	0.13333333333333	0
bin	0.16666666666667	0
bin	0.2	0
bin	0.23333333333333	0
bin	0.26666666666667	0
bin	0.3	0
bin	0.33333333333333	0
bin	0.36666666666667	0
bin	0.4	0
bin	0.43333333333333	0
bin	0.46666666666667	0
bin	0.5	0
statistic scenarioPRJP1.node[8].wlan[0].radio 	bitErrorRate:histogram
field count 0
field mean -nan
field stddev -nan
field sum 0
field sqrsum 0
field min -nan
field max -nan
attr source  bitErrorRate
attr title  "Bit error rate, histogram"
bin	-INF	0
bin	-0.5	0
bin	-0.46666666666667	0
bin	-0.43333333333333	0
bin	-0.4	0
bin	-0.36666666666667	0
bin	-0.33333333333333	0
bin	-0.3	0
bin	-0.26666666666667	0
bin	-0.23333333333333	0
bin	-0.2	0
bin	-0.16666666666667	0
bin	-0.13333333333333	0
bin	-0.1	0
bin	-0.066666666666667	0
bin	-0.033333333333333	0
bin	0	0
bin	0.033333333333333	0
bin	0.066666666666667	0
bin	0.1	0
bin	0.13333333333333	0
bin	0.16666666666667	0
bin	0.2	0
bin	0.23333333333333	0
bin	0.26666666666667	0
bin	0.3	0
bin	0.33333333333333	0
bin	0.36666666666667	0
bin	0.4	0
bin	0.43333333333333	0
bin	0.46666666666667	0
bin	0.5	0
statistic scenarioPRJP1.node[8].wlan[0].radio 	packetErrorRate:histogram
field count 5001
field mean 0.0024478295167827
field stddev 0.048171587311753
field sum 12.24159541343
field sqrsum 11.632474459255
field min 0
field max 1
attr source  packetErrorRate
attr title  "Packet error rate, histogram"
bin	-INF	0
bin	-0.5	0
bin	-0.46666666666667	0
bin	-0.43333333333333	0
bin	-0.4	0
bin	-0.36666666666667	0
bin	-0.33333333333333	0
bin	-0.3	0
bin	-0.26666666666667	0
bin	-0.23333333333333	0
bin	-0.2	0
bin	-0.16666666666667	0
bin	-0.13333333333333	0
bin	-0.1	0
bin	-0.066666666666667	0
bin	-0.033333333333333	0
bin	0	4986
bin	0.033333333333333	1
bin	0.066666666666667	0
bin	0.1	0
bin	0.13333333333333	0
bin	0.16666666666667	0
bin	0.2	1
bin	0.23333333333333	0
bin	0.26666666666667	1
bin	0.3	0
bin	0.33333333333333	0
bin	0.36666666666667	0
bin	0.4	0
bin	0.43333333333333	0
bin	0.46666666666667	0
bin	0.5	12
statistic scenarioPRJP1.node[8].wlan[0].radio 	minSNIR:histogram
field count 5001
field mean 3797.7474642633
field stddev 26897.363730355
field sum 18992535.068781
field sqrsum 3689469730112.4
field min 0.0056418406423988
field max 1463895.3965202
attr source  minSNIR
attr title  "Min SNIR, histogram"
bin	-INF	0
bin	-1818.2442046091	0
bin	-1569.6665110951	0
bin	-1321.0888175811	0
bin	-1072.5111240671	0
bin	-823.93343055315	0
bin	-575.35573703916	0
bin	-326.77804352518	0
bin	-78.200350011199	1263
bin	170.37734350278	2089
bin	418.95503701677	323
bin	667.53273053075	231
bin	916.11042404473	102
bin	1164.6881175587	32
bin	1413.2658110727	30
bin	1661.8435045867	69
bin	1910.4211981007	105
bin	2158.9988916146	13
bin	2407.5765851286	27
bin	2656.1542786426	77
bin	2904.7319721566	22
bin	3153.3096656706	10
bin	3401.8873591846	9
bin	3650.4650526985	10
bin	3899.0427462125	8
bin	4147.6204397265	3
bin	4396.1981332405	5
bin	4644.7758267545	4
bin	4893.3535202685	4
bin	5141.9312137824	1
bin	5390.5089072964	9
bin	5639.0866008104	555
scalar scenarioPRJP1.node[8].lo0.lo 	droppedPkBitError:count 	0
attr interpolationmode  none
attr source  dropPkBitError
attr title  "packets dropped/bit error, count"
scalar scenarioPRJP1.node[8].lo0.lo 	droppedPkBitError:sum(packetBytes) 	0
attr interpolationmode  none
attr source  dropPkBitError
attr title  "packets dropped/bit error, sum(packetBytes)"
scalar scenarioPRJP1.node[8].lo0.lo 	rcvdPkFromHL:count 	0
attr interpolationmode  none
attr source  packetReceivedFromUpper
attr title  "packets received from higher layer, count"
scalar scenarioPRJP1.node[8].lo0.lo 	rcvdPkFromHL:sum(packetBytes) 	0
attr interpolationmode  none
attr source  packetReceivedFromUpper
attr title  "packets received from higher layer, sum(packetBytes)"
scalar scenarioPRJP1.node[8].lo0.lo 	passedUpPk:count 	0
attr interpolationmode  none
attr source  packetSentToUpper
attr title  "packets passed to higher layer, count"
scalar scenarioPRJP1.node[8].lo0.lo 	passedUpPk:sum(packetBytes) 	0
attr interpolationmode  none
attr source  packetSentToUpper
attr title  "packets passed to higher layer, sum(packetBytes)"
