version 2
run AODVRouting-LNS-50n-14-20150707-19:30:06-22578
attr configname AODVRouting-LNS-50n
attr datetime 20150707-19:30:06
attr experiment AODVRouting-LNS-50n
attr inifile omnetpp.ini
attr iterationvars ""
attr iterationvars2 $repetition=14
attr measurement ""
attr network Prj_Part1_propag.scenarioPRJP1
attr processid 22578
attr repetition 14
attr replication #14
attr resultdir results
attr runnumber 14
attr seedset 14

scalar scenarioPRJP1.radioMedium.propagation 	"Arrival computation count" 	264882779
scalar scenarioPRJP1.radioMedium 	"transmission count" 	5405771
scalar scenarioPRJP1.radioMedium 	"radio frame send count" 	264882779
scalar scenarioPRJP1.radioMedium 	"reception computation count" 	263857639
scalar scenarioPRJP1.radioMedium 	"interference computation count" 	658593571
scalar scenarioPRJP1.radioMedium 	"reception decision computation count" 	156066463
scalar scenarioPRJP1.radioMedium 	"listening decision computation count" 	240849652
scalar scenarioPRJP1.radioMedium 	"reception cache hit" 	80.781993354133
attr unit  %
scalar scenarioPRJP1.radioMedium 	"interference cache hit" 	50
attr unit  %
scalar scenarioPRJP1.radioMedium 	"noise cache hit" 	0
attr unit  %
scalar scenarioPRJP1.radioMedium 	"snir cache hit" 	0
attr unit  %
scalar scenarioPRJP1.radioMedium 	"reception decision cache hit" 	0
attr unit  %
scalar scenarioPRJP1.node[0].app 	"Total sent" 	5012
scalar scenarioPRJP1.node[0].app 	"Total received" 	2378
scalar scenarioPRJP1.node[0].app 	"Total deleted" 	33
scalar scenarioPRJP1.node[0].app 	dropPk:count 	33
attr interpolationmode  none
attr source  dropPk
attr title  "packets dropped, count"
scalar scenarioPRJP1.node[0].app 	dropPk:sum(packetBytes) 	16896
attr interpolationmode  none
attr source  dropPk
attr title  "packets dropped, sum(packetBytes)"
scalar scenarioPRJP1.node[0].app 	outOfOrderPk:count 	151
attr interpolationmode  none
attr source  outOfOrderPk
attr title  "packets received out of order, count"
scalar scenarioPRJP1.node[0].app 	outOfOrderPk:sum(packetBytes) 	77312
attr interpolationmode  none
attr source  outOfOrderPk
attr title  "packets received out of order, sum(packetBytes)"
scalar scenarioPRJP1.node[0].app 	rcvdPk:count 	2378
attr interpolationmode  none
attr source  rcvdPk
attr title  "packets received, count"
scalar scenarioPRJP1.node[0].app 	rcvdPk:sum(packetBytes) 	1217536
attr interpolationmode  none
attr source  rcvdPk
attr title  "packets received, sum(packetBytes)"
statistic scenarioPRJP1.node[0].app 	endToEndDelay:histogram
field count 2378
field mean 0.81174431722658
field stddev 2.1517553165958
field sum 1930.3279863648
field sqrsum 12572.563863634
field min 0.000892229283
field max 19.158369198355
attr interpolationmode  none
attr source  messageAge(rcvdPk)
attr title  "delay, histogram"
attr unit  s
bin	-INF	0
bin	-7.701793695339	0
bin	-6.6747689053894	0
bin	-5.6477441154398	0
bin	-4.6207193254902	0
bin	-3.5936945355406	0
bin	-2.566669745591	0
bin	-1.5396449556414	0
bin	-0.5126201656918	1796
bin	0.5144046242578	274
bin	1.5414294142074	126
bin	2.568454204157	58
bin	3.5954789941066	31
bin	4.6225037840562	19
bin	5.6495285740058	13
bin	6.6765533639554	5
bin	7.703578153905	12
bin	8.7306029438546	4
bin	9.7576277338042	10
bin	10.784652523754	3
bin	11.811677313703	6
bin	12.838702103653	2
bin	13.865726893603	2
bin	14.892751683552	3
bin	15.919776473502	5
bin	16.946801263451	2
bin	17.973826053401	1
bin	19.000850843351	6
bin	20.0278756333	0
bin	21.05490042325	0
bin	22.081925213199	0
bin	23.108950003149	0
scalar scenarioPRJP1.node[0].app 	sentPk:count 	5012
attr interpolationmode  none
attr source  sentPk
attr title  "packets sent, count"
scalar scenarioPRJP1.node[0].app 	sentPk:sum(packetBytes) 	2566144
attr interpolationmode  none
attr source  sentPk
attr title  "packets sent, sum(packetBytes)"
scalar scenarioPRJP1.node[0].udp 	droppedPkBadChecksum:count 	0
attr interpolationmode  none
attr title  "packets dropped (checksum error), count"
scalar scenarioPRJP1.node[0].udp 	droppedPkWrongPort:count 	2
attr interpolationmode  none
attr title  "packets dropped (wrong port), count"
scalar scenarioPRJP1.node[0].udp 	passedUpPk:count 	2562
attr interpolationmode  none
attr title  "packets passed up, count"
scalar scenarioPRJP1.node[0].udp 	rcvdPk:count 	2564
attr interpolationmode  none
attr source  rcvdPk
attr title  "packets received, count"
scalar scenarioPRJP1.node[0].udp 	rcvdPk:sum(packetBytes) 	1333280
attr interpolationmode  none
attr source  rcvdPk
attr title  "packets received, sum(packetBytes)"
scalar scenarioPRJP1.node[0].udp 	sentPk:count 	5012
attr interpolationmode  none
attr source  sentPk
attr title  "packets sent, count"
scalar scenarioPRJP1.node[0].udp 	sentPk:sum(packetBytes) 	2606240
attr interpolationmode  none
attr source  sentPk
attr title  "packets sent, sum(packetBytes)"
scalar scenarioPRJP1.node[0].networkLayer.arp 	failedARPResolution:count 	50
attr title  "ARP failed resolutions, count"
scalar scenarioPRJP1.node[0].networkLayer.arp 	completedARPResolution:count 	5381
attr title  "ARP completed resolutions, count"
scalar scenarioPRJP1.node[0].networkLayer.arp 	initiatedARPResolution:count 	134
attr title  "ARP initiated resolutions, count"
scalar scenarioPRJP1.node[0].networkLayer.arp 	sentReply:count 	137
attr title  "ARP replies sent, count"
scalar scenarioPRJP1.node[0].networkLayer.arp 	sentReq:count 	302
attr title  "ARP request sent, count"
scalar scenarioPRJP1.node[0].mobility 	startTime 	0.1
scalar scenarioPRJP1.node[0].mobility 	totalTime 	1899.9
scalar scenarioPRJP1.node[0].mobility 	stopTime 	1900
scalar scenarioPRJP1.node[0].mobility 	minSpeed 	2.4754251094346e-13
scalar scenarioPRJP1.node[0].mobility 	maxSpeed 	19.973293403266
scalar scenarioPRJP1.node[0].mobility 	totalDistance 	20110.851976988
scalar scenarioPRJP1.node[0].mobility 	totalCO2Emission 	5715.7438132546
scalar scenarioPRJP1.node[0].wlan[0].mgmt 	dataQueueLen:max 	100
attr interpolationmode  sample-hold
attr title  "data queue length, max"
scalar scenarioPRJP1.node[0].wlan[0].mgmt 	dataQueueLen:timeavg 	1.4252324196351
attr interpolationmode  sample-hold
attr title  "data queue length, timeavg"
scalar scenarioPRJP1.node[0].wlan[0].mgmt 	dropPkByQueue:count 	7
attr interpolationmode  none
attr source  dropPkByQueue
attr title  "packets dropped by queue, count"
scalar scenarioPRJP1.node[0].wlan[0].mgmt 	dropPkByQueue:sum(packetBytes) 	612
attr interpolationmode  none
attr source  dropPkByQueue
attr title  "packets dropped by queue, sum(packetBytes)"
scalar scenarioPRJP1.node[0].wlan[0].mac 	"number of received packets" 	15613
scalar scenarioPRJP1.node[0].wlan[0].mac 	"number of collisions" 	1228367
scalar scenarioPRJP1.node[0].wlan[0].mac 	"number of internal collisions" 	2
scalar scenarioPRJP1.node[0].wlan[0].mac 	"number of retry for AC 0" 	37968
scalar scenarioPRJP1.node[0].wlan[0].mac 	"number of retry for AC 1" 	10
scalar scenarioPRJP1.node[0].wlan[0].mac 	"number of retry for AC 2" 	0
scalar scenarioPRJP1.node[0].wlan[0].mac 	"number of retry for AC 3" 	0
scalar scenarioPRJP1.node[0].wlan[0].mac 	"sent and received bits" 	52063264
scalar scenarioPRJP1.node[0].wlan[0].mac 	"sent packet within AC 0" 	13888
scalar scenarioPRJP1.node[0].wlan[0].mac 	"sent packet within AC 1" 	3
scalar scenarioPRJP1.node[0].wlan[0].mac 	"sent packet within AC 2" 	0
scalar scenarioPRJP1.node[0].wlan[0].mac 	"sent packet within AC 3" 	0
scalar scenarioPRJP1.node[0].wlan[0].mac 	"sent in TXOP " 	0
scalar scenarioPRJP1.node[0].wlan[0].mac 	"sentWithoutRetry AC 0" 	6476
scalar scenarioPRJP1.node[0].wlan[0].mac 	"sentWithoutRetry AC 1" 	2
scalar scenarioPRJP1.node[0].wlan[0].mac 	"sentWithoutRetry AC 2" 	0
scalar scenarioPRJP1.node[0].wlan[0].mac 	"sentWithoutRetry AC 3" 	0
scalar scenarioPRJP1.node[0].wlan[0].mac 	"numGivenUp AC 0" 	3152
scalar scenarioPRJP1.node[0].wlan[0].mac 	"numGivenUp AC 1" 	1
scalar scenarioPRJP1.node[0].wlan[0].mac 	"numGivenUp AC 2" 	0
scalar scenarioPRJP1.node[0].wlan[0].mac 	"numGivenUp AC 3" 	0
scalar scenarioPRJP1.node[0].wlan[0].mac 	"numDropped AC 0" 	4560
scalar scenarioPRJP1.node[0].wlan[0].mac 	"numDropped AC 1" 	0
scalar scenarioPRJP1.node[0].wlan[0].mac 	"numDropped AC 2" 	0
scalar scenarioPRJP1.node[0].wlan[0].mac 	"numDropped AC 3" 	0
scalar scenarioPRJP1.node[0].wlan[0].mac 	rcvdPkFromLL:count 	3133462
attr interpolationmode  none
attr source  packetReceivedFromLower
attr title  "packets received from lower layer, count"
scalar scenarioPRJP1.node[0].wlan[0].mac 	rcvdPkFromLL:sum(packetBytes) 	552548452
attr interpolationmode  none
attr source  packetReceivedFromLower
attr title  "packets received from lower layer, sum(packetBytes)"
scalar scenarioPRJP1.node[0].wlan[0].mac 	sentDownPk:count 	108019
attr interpolationmode  none
attr source  packetSentToLower
attr title  "packets sent to lower layer, count"
scalar scenarioPRJP1.node[0].wlan[0].mac 	sentDownPk:sum(packetBytes) 	20678970
attr interpolationmode  none
attr source  packetSentToLower
attr title  "packets sent to lower layer, sum(packetBytes)"
scalar scenarioPRJP1.node[0].wlan[0].mac 	rcvdPkFromHL:count 	58990
attr interpolationmode  none
attr source  packetReceivedFromUpper
attr title  "packets received from higher layer, count"
scalar scenarioPRJP1.node[0].wlan[0].mac 	rcvdPkFromHL:sum(packetBytes) 	8316856
attr interpolationmode  none
attr source  packetReceivedFromUpper
attr title  "packets received from higher layer, sum(packetBytes)"
scalar scenarioPRJP1.node[0].wlan[0].mac 	passedUpPk:count 	631532
attr interpolationmode  none
attr source  packetSentToUpper
attr title  "packets passed to higher layer, count"
scalar scenarioPRJP1.node[0].wlan[0].mac 	passedUpPk:sum(packetBytes) 	57211088
attr interpolationmode  none
attr source  packetSentToUpper
attr title  "packets passed to higher layer, sum(packetBytes)"
statistic scenarioPRJP1.node[0].wlan[0].radio 	radioChannel:histogram
field count 1
field mean 3
field stddev -nan
field sum 3
field sqrsum 9
field min 3
field max 3
attr interpolationmode  sample-hold
attr source  radioChannelChanged
attr title  "Radio channel, histogram"
bin	-INF	0
bin	2	0
bin	3	1
bin	4	0
scalar scenarioPRJP1.node[0].wlan[0].radio 	transmissionState:count 	432076
attr interpolationmode  sample-hold
attr source  transmissionStateChanged
attr title  "Radio transmission state, count"
scalar scenarioPRJP1.node[0].wlan[0].radio 	receptionState:count 	7310079
attr interpolationmode  sample-hold
attr source  receptionStateChanged
attr title  "Radio reception state, count"
scalar scenarioPRJP1.node[0].wlan[0].radio 	radioMode:count 	216040
attr interpolationmode  sample-hold
attr source  radioModeChanged
attr title  "Radio mode, count"
statistic scenarioPRJP1.node[0].wlan[0].radio 	symbolErrorRate:histogram
field count 0
field mean -nan
field stddev -nan
field sum 0
field sqrsum 0
field min -nan
field max -nan
attr source  symbolErrorRate
attr title  "Symbol error rate, histogram"
bin	-INF	0
bin	-0.5	0
bin	-0.46666666666667	0
bin	-0.43333333333333	0
bin	-0.4	0
bin	-0.36666666666667	0
bin	-0.33333333333333	0
bin	-0.3	0
bin	-0.26666666666667	0
bin	-0.23333333333333	0
bin	-0.2	0
bin	-0.16666666666667	0
bin	-0.13333333333333	0
bin	-0.1	0
bin	-0.066666666666667	0
bin	-0.033333333333333	0
bin	-6.9388939039072e-18	0
bin	0.033333333333333	0
bin	0.066666666666667	0
bin	0.1	0
bin	0.13333333333333	0
bin	0.16666666666667	0
bin	0.2	0
bin	0.23333333333333	0
bin	0.26666666666667	0
bin	0.3	0
bin	0.33333333333333	0
bin	0.36666666666667	0
bin	0.4	0
bin	0.43333333333333	0
bin	0.46666666666667	0
bin	0.5	0
statistic scenarioPRJP1.node[0].wlan[0].radio 	bitErrorRate:histogram
field count 0
field mean -nan
field stddev -nan
field sum 0
field sqrsum 0
field min -nan
field max -nan
attr source  bitErrorRate
attr title  "Bit error rate, histogram"
bin	-INF	0
bin	-0.5	0
bin	-0.46666666666667	0
bin	-0.43333333333333	0
bin	-0.4	0
bin	-0.36666666666667	0
bin	-0.33333333333333	0
bin	-0.3	0
bin	-0.26666666666667	0
bin	-0.23333333333333	0
bin	-0.2	0
bin	-0.16666666666667	0
bin	-0.13333333333333	0
bin	-0.1	0
bin	-0.066666666666667	0
bin	-0.033333333333333	0
bin	-6.9388939039072e-18	0
bin	0.033333333333333	0
bin	0.066666666666667	0
bin	0.1	0
bin	0.13333333333333	0
bin	0.16666666666667	0
bin	0.2	0
bin	0.23333333333333	0
bin	0.26666666666667	0
bin	0.3	0
bin	0.33333333333333	0
bin	0.36666666666667	0
bin	0.4	0
bin	0.43333333333333	0
bin	0.46666666666667	0
bin	0.5	0
statistic scenarioPRJP1.node[0].wlan[0].radio 	packetErrorRate:histogram
field count 3133462
field mean 0.3730130174218
field stddev 0.47791837106752
field sum 1168822.1155966
field sqrsum 1151687.0614621
field min 0
field max 1
attr source  packetErrorRate
attr title  "Packet error rate, histogram"
bin	-INF	0
bin	-0.5	0
bin	-0.43333333333333	0
bin	-0.36666666666667	0
bin	-0.3	0
bin	-0.23333333333333	0
bin	-0.16666666666667	0
bin	-0.1	0
bin	-0.033333333333333	1894747
bin	0.033333333333333	28108
bin	0.1	13568
bin	0.16666666666667	9560
bin	0.23333333333333	7494
bin	0.3	6173
bin	0.36666666666667	5449
bin	0.43333333333333	4953
bin	0.5	4729
bin	0.56666666666667	4432
bin	0.63333333333333	4551
bin	0.7	4576
bin	0.76666666666667	4942
bin	0.83333333333333	6085
bin	0.9	9435
bin	0.96666666666667	1124660
bin	1.0333333333333	0
bin	1.1	0
bin	1.1666666666667	0
bin	1.2333333333333	0
bin	1.3	0
bin	1.3666666666667	0
bin	1.4333333333333	0
bin	1.5	0
statistic scenarioPRJP1.node[0].wlan[0].radio 	minSNIR:histogram
field count 3133462
field mean 35515.448499902
field stddev 742047.01185708
field sum 111286308287.4
field sqrsum 1.7293418198539e+18
field min 2.6199734202285e-06
field max 117581650.246
attr source  minSNIR
attr title  "Min SNIR, histogram"
bin	-INF	0
bin	-72195.926858488	0
bin	-62569.797415344	0
bin	-52943.667972199	0
bin	-43317.538529054	0
bin	-33691.40908591	0
bin	-24065.279642765	0
bin	-14439.15019962	0
bin	-4813.0207564755	2907509
bin	4813.1086866692	138689
bin	14439.238129814	21969
bin	24065.367572959	8899
bin	33691.497016103	5147
bin	43317.626459248	3508
bin	52943.755902393	2566
bin	62569.885345537	2008
bin	72196.014788682	1682
bin	81822.144231827	1373
bin	91448.273674972	1121
bin	101074.40311812	1011
bin	110700.53256126	944
bin	120326.66200441	801
bin	129952.79144755	782
bin	139578.9208907	692
bin	149205.05033384	642
bin	158831.17977698	591
bin	168457.30922013	556
bin	178083.43866327	559
bin	187709.56810642	478
bin	197335.69754956	490
bin	206961.82699271	477
bin	216587.95643585	30968
scalar scenarioPRJP1.node[0].lo0.lo 	droppedPkBitError:count 	0
attr interpolationmode  none
attr source  dropPkBitError
attr title  "packets dropped/bit error, count"
scalar scenarioPRJP1.node[0].lo0.lo 	droppedPkBitError:sum(packetBytes) 	0
attr interpolationmode  none
attr source  dropPkBitError
attr title  "packets dropped/bit error, sum(packetBytes)"
scalar scenarioPRJP1.node[0].lo0.lo 	rcvdPkFromHL:count 	0
attr interpolationmode  none
attr source  packetReceivedFromUpper
attr title  "packets received from higher layer, count"
scalar scenarioPRJP1.node[0].lo0.lo 	rcvdPkFromHL:sum(packetBytes) 	0
attr interpolationmode  none
attr source  packetReceivedFromUpper
attr title  "packets received from higher layer, sum(packetBytes)"
scalar scenarioPRJP1.node[0].lo0.lo 	passedUpPk:count 	0
attr interpolationmode  none
attr source  packetSentToUpper
attr title  "packets passed to higher layer, count"
scalar scenarioPRJP1.node[0].lo0.lo 	passedUpPk:sum(packetBytes) 	0
attr interpolationmode  none
attr source  packetSentToUpper
attr title  "packets passed to higher layer, sum(packetBytes)"
scalar scenarioPRJP1.node[20].app 	"Total sent" 	5033
scalar scenarioPRJP1.node[20].app 	"Total received" 	2221
scalar scenarioPRJP1.node[20].app 	"Total deleted" 	70
scalar scenarioPRJP1.node[20].app 	dropPk:count 	70
attr interpolationmode  none
attr source  dropPk
attr title  "packets dropped, count"
scalar scenarioPRJP1.node[20].app 	dropPk:sum(packetBytes) 	35840
attr interpolationmode  none
attr source  dropPk
attr title  "packets dropped, sum(packetBytes)"
scalar scenarioPRJP1.node[20].app 	outOfOrderPk:count 	251
attr interpolationmode  none
attr source  outOfOrderPk
attr title  "packets received out of order, count"
scalar scenarioPRJP1.node[20].app 	outOfOrderPk:sum(packetBytes) 	128512
attr interpolationmode  none
attr source  outOfOrderPk
attr title  "packets received out of order, sum(packetBytes)"
scalar scenarioPRJP1.node[20].app 	rcvdPk:count 	2221
attr interpolationmode  none
attr source  rcvdPk
attr title  "packets received, count"
scalar scenarioPRJP1.node[20].app 	rcvdPk:sum(packetBytes) 	1137152
attr interpolationmode  none
attr source  rcvdPk
attr title  "packets received, sum(packetBytes)"
statistic scenarioPRJP1.node[20].app 	endToEndDelay:histogram
field count 2221
field mean 1.2330494873401
field stddev 3.0801288341815
field sum 2738.6029113823
field sqrsum 24438.402785955
field min 0.000891216411
field max 19.966700934189
attr interpolationmode  none
attr source  messageAge(rcvdPk)
attr title  "delay, histogram"
attr unit  s
bin	-INF	0
bin	-6.19447319701	0
bin	-5.3684232660441	0
bin	-4.5423733350783	0
bin	-3.7163234041124	0
bin	-2.8902734731465	0
bin	-2.0642235421807	0
bin	-1.2381736112148	0
bin	-0.41212368024893	1612
bin	0.41392625071693	196
bin	1.2399761816828	103
bin	2.0660261126487	65
bin	2.8920760436145	37
bin	3.7181259745804	36
bin	4.5441759055463	18
bin	5.3702258365121	22
bin	6.196275767478	10
bin	7.0223256984439	10
bin	7.8483756294097	12
bin	8.6744255603756	11
bin	9.5004754913415	5
bin	10.326525422307	12
bin	11.152575353273	6
bin	11.978625284239	15
bin	12.804675215205	4
bin	13.630725146171	10
bin	14.456775077137	6
bin	15.282825008103	5
bin	16.108874939068	8
bin	16.934924870034	3
bin	17.760974801	6
bin	18.587024731966	9
scalar scenarioPRJP1.node[20].app 	sentPk:count 	5033
attr interpolationmode  none
attr source  sentPk
attr title  "packets sent, count"
scalar scenarioPRJP1.node[20].app 	sentPk:sum(packetBytes) 	2576896
attr interpolationmode  none
attr source  sentPk
attr title  "packets sent, sum(packetBytes)"
scalar scenarioPRJP1.node[20].udp 	droppedPkBadChecksum:count 	0
attr interpolationmode  none
attr title  "packets dropped (checksum error), count"
scalar scenarioPRJP1.node[20].udp 	droppedPkWrongPort:count 	2
attr interpolationmode  none
attr title  "packets dropped (wrong port), count"
scalar scenarioPRJP1.node[20].udp 	passedUpPk:count 	2542
attr interpolationmode  none
attr title  "packets passed up, count"
scalar scenarioPRJP1.node[20].udp 	rcvdPk:count 	2544
attr interpolationmode  none
attr source  rcvdPk
attr title  "packets received, count"
scalar scenarioPRJP1.node[20].udp 	rcvdPk:sum(packetBytes) 	1322880
attr interpolationmode  none
attr source  rcvdPk
attr title  "packets received, sum(packetBytes)"
scalar scenarioPRJP1.node[20].udp 	sentPk:count 	5033
attr interpolationmode  none
attr source  sentPk
attr title  "packets sent, count"
scalar scenarioPRJP1.node[20].udp 	sentPk:sum(packetBytes) 	2617160
attr interpolationmode  none
attr source  sentPk
attr title  "packets sent, sum(packetBytes)"
scalar scenarioPRJP1.node[20].networkLayer.arp 	failedARPResolution:count 	74
attr title  "ARP failed resolutions, count"
scalar scenarioPRJP1.node[20].networkLayer.arp 	completedARPResolution:count 	5090
attr title  "ARP completed resolutions, count"
scalar scenarioPRJP1.node[20].networkLayer.arp 	initiatedARPResolution:count 	158
attr title  "ARP initiated resolutions, count"
scalar scenarioPRJP1.node[20].networkLayer.arp 	sentReply:count 	132
attr title  "ARP replies sent, count"
scalar scenarioPRJP1.node[20].networkLayer.arp 	sentReq:count 	363
attr title  "ARP request sent, count"
scalar scenarioPRJP1.node[20].mobility 	startTime 	2.5
scalar scenarioPRJP1.node[20].mobility 	totalTime 	1897.5
scalar scenarioPRJP1.node[20].mobility 	stopTime 	1900
scalar scenarioPRJP1.node[20].mobility 	minSpeed 	2.4754272800707e-13
scalar scenarioPRJP1.node[20].mobility 	maxSpeed 	21.671999683555
scalar scenarioPRJP1.node[20].mobility 	totalDistance 	21901.503920831
scalar scenarioPRJP1.node[20].mobility 	totalCO2Emission 	6155.4867597018
scalar scenarioPRJP1.node[20].wlan[0].mgmt 	dataQueueLen:max 	91
attr interpolationmode  sample-hold
attr title  "data queue length, max"
scalar scenarioPRJP1.node[20].wlan[0].mgmt 	dataQueueLen:timeavg 	1.2162434945475
attr interpolationmode  sample-hold
attr title  "data queue length, timeavg"
scalar scenarioPRJP1.node[20].wlan[0].mgmt 	dropPkByQueue:count 	0
attr interpolationmode  none
attr source  dropPkByQueue
attr title  "packets dropped by queue, count"
scalar scenarioPRJP1.node[20].wlan[0].mgmt 	dropPkByQueue:sum(packetBytes) 	0
attr interpolationmode  none
attr source  dropPkByQueue
attr title  "packets dropped by queue, sum(packetBytes)"
scalar scenarioPRJP1.node[20].wlan[0].mac 	"number of received packets" 	13801
scalar scenarioPRJP1.node[20].wlan[0].mac 	"number of collisions" 	1261781
scalar scenarioPRJP1.node[20].wlan[0].mac 	"number of internal collisions" 	0
scalar scenarioPRJP1.node[20].wlan[0].mac 	"number of retry for AC 0" 	38086
scalar scenarioPRJP1.node[20].wlan[0].mac 	"number of retry for AC 1" 	2
scalar scenarioPRJP1.node[20].wlan[0].mac 	"number of retry for AC 2" 	0
scalar scenarioPRJP1.node[20].wlan[0].mac 	"number of retry for AC 3" 	0
scalar scenarioPRJP1.node[20].wlan[0].mac 	"sent and received bits" 	46347936
scalar scenarioPRJP1.node[20].wlan[0].mac 	"sent packet within AC 0" 	11340
scalar scenarioPRJP1.node[20].wlan[0].mac 	"sent packet within AC 1" 	5
scalar scenarioPRJP1.node[20].wlan[0].mac 	"sent packet within AC 2" 	0
scalar scenarioPRJP1.node[20].wlan[0].mac 	"sent packet within AC 3" 	0
scalar scenarioPRJP1.node[20].wlan[0].mac 	"sent in TXOP " 	0
scalar scenarioPRJP1.node[20].wlan[0].mac 	"sentWithoutRetry AC 0" 	4710
scalar scenarioPRJP1.node[20].wlan[0].mac 	"sentWithoutRetry AC 1" 	3
scalar scenarioPRJP1.node[20].wlan[0].mac 	"sentWithoutRetry AC 2" 	0
scalar scenarioPRJP1.node[20].wlan[0].mac 	"sentWithoutRetry AC 3" 	0
scalar scenarioPRJP1.node[20].wlan[0].mac 	"numGivenUp AC 0" 	3391
scalar scenarioPRJP1.node[20].wlan[0].mac 	"numGivenUp AC 1" 	0
scalar scenarioPRJP1.node[20].wlan[0].mac 	"numGivenUp AC 2" 	0
scalar scenarioPRJP1.node[20].wlan[0].mac 	"numGivenUp AC 3" 	0
scalar scenarioPRJP1.node[20].wlan[0].mac 	"numDropped AC 0" 	3833
scalar scenarioPRJP1.node[20].wlan[0].mac 	"numDropped AC 1" 	0
scalar scenarioPRJP1.node[20].wlan[0].mac 	"numDropped AC 2" 	0
scalar scenarioPRJP1.node[20].wlan[0].mac 	"numDropped AC 3" 	0
scalar scenarioPRJP1.node[20].wlan[0].mac 	rcvdPkFromLL:count 	3128599
attr interpolationmode  none
attr source  packetReceivedFromLower
attr title  "packets received from lower layer, count"
scalar scenarioPRJP1.node[20].wlan[0].mac 	rcvdPkFromLL:sum(packetBytes) 	551299734
attr interpolationmode  none
attr source  packetReceivedFromLower
attr title  "packets received from lower layer, sum(packetBytes)"
scalar scenarioPRJP1.node[20].wlan[0].mac 	sentDownPk:count 	100914
attr interpolationmode  none
attr source  packetSentToLower
attr title  "packets sent to lower layer, count"
scalar scenarioPRJP1.node[20].wlan[0].mac 	sentDownPk:sum(packetBytes) 	20170226
attr interpolationmode  none
attr source  packetSentToLower
attr title  "packets sent to lower layer, sum(packetBytes)"
scalar scenarioPRJP1.node[20].wlan[0].mac 	rcvdPkFromHL:count 	52858
attr interpolationmode  none
attr source  packetReceivedFromUpper
attr title  "packets received from higher layer, count"
scalar scenarioPRJP1.node[20].wlan[0].mac 	rcvdPkFromHL:sum(packetBytes) 	7564052
attr interpolationmode  none
attr source  packetReceivedFromUpper
attr title  "packets received from higher layer, sum(packetBytes)"
scalar scenarioPRJP1.node[20].wlan[0].mac 	passedUpPk:count 	617177
attr interpolationmode  none
attr source  packetSentToUpper
attr title  "packets passed to higher layer, count"
scalar scenarioPRJP1.node[20].wlan[0].mac 	passedUpPk:sum(packetBytes) 	55681824
attr interpolationmode  none
attr source  packetSentToUpper
attr title  "packets passed to higher layer, sum(packetBytes)"
statistic scenarioPRJP1.node[20].wlan[0].radio 	radioChannel:histogram
field count 1
field mean 3
field stddev -nan
field sum 3
field sqrsum 9
field min 3
field max 3
attr interpolationmode  sample-hold
attr source  radioChannelChanged
attr title  "Radio channel, histogram"
bin	-INF	0
bin	2	0
bin	3	1
bin	4	0
scalar scenarioPRJP1.node[20].wlan[0].radio 	transmissionState:count 	403656
attr interpolationmode  sample-hold
attr source  transmissionStateChanged
attr title  "Radio transmission state, count"
scalar scenarioPRJP1.node[20].wlan[0].radio 	receptionState:count 	7292913
attr interpolationmode  sample-hold
attr source  receptionStateChanged
attr title  "Radio reception state, count"
scalar scenarioPRJP1.node[20].wlan[0].radio 	radioMode:count 	201830
attr interpolationmode  sample-hold
attr source  radioModeChanged
attr title  "Radio mode, count"
statistic scenarioPRJP1.node[20].wlan[0].radio 	symbolErrorRate:histogram
field count 0
field mean -nan
field stddev -nan
field sum 0
field sqrsum 0
field min -nan
field max -nan
attr source  symbolErrorRate
attr title  "Symbol error rate, histogram"
bin	-INF	0
bin	-0.5	0
bin	-0.46666666666667	0
bin	-0.43333333333333	0
bin	-0.4	0
bin	-0.36666666666667	0
bin	-0.33333333333333	0
bin	-0.3	0
bin	-0.26666666666667	0
bin	-0.23333333333333	0
bin	-0.2	0
bin	-0.16666666666667	0
bin	-0.13333333333333	0
bin	-0.1	0
bin	-0.066666666666667	0
bin	-0.033333333333333	0
bin	-6.9388939039072e-18	0
bin	0.033333333333333	0
bin	0.066666666666667	0
bin	0.1	0
bin	0.13333333333333	0
bin	0.16666666666667	0
bin	0.2	0
bin	0.23333333333333	0
bin	0.26666666666667	0
bin	0.3	0
bin	0.33333333333333	0
bin	0.36666666666667	0
bin	0.4	0
bin	0.43333333333333	0
bin	0.46666666666667	0
bin	0.5	0
statistic scenarioPRJP1.node[20].wlan[0].radio 	bitErrorRate:histogram
field count 0
field mean -nan
field stddev -nan
field sum 0
field sqrsum 0
field min -nan
field max -nan
attr source  bitErrorRate
attr title  "Bit error rate, histogram"
bin	-INF	0
bin	-0.5	0
bin	-0.46666666666667	0
bin	-0.43333333333333	0
bin	-0.4	0
bin	-0.36666666666667	0
bin	-0.33333333333333	0
bin	-0.3	0
bin	-0.26666666666667	0
bin	-0.23333333333333	0
bin	-0.2	0
bin	-0.16666666666667	0
bin	-0.13333333333333	0
bin	-0.1	0
bin	-0.066666666666667	0
bin	-0.033333333333333	0
bin	-6.9388939039072e-18	0
bin	0.033333333333333	0
bin	0.066666666666667	0
bin	0.1	0
bin	0.13333333333333	0
bin	0.16666666666667	0
bin	0.2	0
bin	0.23333333333333	0
bin	0.26666666666667	0
bin	0.3	0
bin	0.33333333333333	0
bin	0.36666666666667	0
bin	0.4	0
bin	0.43333333333333	0
bin	0.46666666666667	0
bin	0.5	0
statistic scenarioPRJP1.node[20].wlan[0].radio 	packetErrorRate:histogram
field count 3128599
field mean 0.38284874328898
field stddev 0.48007776889568
field sum 1197780.1954052
field sqrsum 1179631.2159761
field min 0
field max 1
attr source  packetErrorRate
attr title  "Packet error rate, histogram"
bin	-INF	0
bin	-0.5	0
bin	-0.43333333333333	0
bin	-0.36666666666667	0
bin	-0.3	0
bin	-0.23333333333333	0
bin	-0.16666666666667	0
bin	-0.1	0
bin	-0.033333333333333	1857372
bin	0.033333333333333	29308
bin	0.1	14251
bin	0.16666666666667	10049
bin	0.23333333333333	7816
bin	0.3	6483
bin	0.36666666666667	5776
bin	0.43333333333333	5310
bin	0.5	5079
bin	0.56666666666667	4784
bin	0.63333333333333	4702
bin	0.7	4995
bin	0.76666666666667	5359
bin	0.83333333333333	6502
bin	0.9	9894
bin	0.96666666666667	1150919
bin	1.0333333333333	0
bin	1.1	0
bin	1.1666666666667	0
bin	1.2333333333333	0
bin	1.3	0
bin	1.3666666666667	0
bin	1.4333333333333	0
bin	1.5	0
statistic scenarioPRJP1.node[20].wlan[0].radio 	minSNIR:histogram
field count 3128599
field mean 19907.336904205
field stddev 509602.69964708
field sum 62282074331.158
field sqrsum 8.1372085092707e+17
field min 3.7957074837964e-06
field max 108169815.62668
attr source  minSNIR
attr title  "Min SNIR, histogram"
bin	-INF	0
bin	-3462.2155861502	0
bin	-3000.5807606525	0
bin	-2538.9459351547	0
bin	-2077.311109657	0
bin	-1615.6762841593	0
bin	-1154.0414586616	0
bin	-692.40663316394	0
bin	-230.77180766623	1868746
bin	230.86301783147	303341
bin	692.49784332917	246078
bin	1154.1326688269	155479
bin	1615.7674943246	105097
bin	2077.4023198223	75080
bin	2539.03714532	55900
bin	3000.6719708177	42849
bin	3462.3067963154	34127
bin	3923.9416218131	27235
bin	4385.5764473108	22026
bin	4847.2112728085	18277
bin	5308.8460983062	15372
bin	5770.4809238039	13224
bin	6232.1157493016	11013
bin	6693.7505747993	9540
bin	7155.385400297	8319
bin	7617.0202257947	7279
bin	8078.6550512924	6255
bin	8540.2898767901	5545
bin	9001.9247022878	5011
bin	9463.5595277855	4421
bin	9925.1943532832	3923
bin	10386.829178781	84462
scalar scenarioPRJP1.node[20].lo0.lo 	droppedPkBitError:count 	0
attr interpolationmode  none
attr source  dropPkBitError
attr title  "packets dropped/bit error, count"
scalar scenarioPRJP1.node[20].lo0.lo 	droppedPkBitError:sum(packetBytes) 	0
attr interpolationmode  none
attr source  dropPkBitError
attr title  "packets dropped/bit error, sum(packetBytes)"
scalar scenarioPRJP1.node[20].lo0.lo 	rcvdPkFromHL:count 	0
attr interpolationmode  none
attr source  packetReceivedFromUpper
attr title  "packets received from higher layer, count"
scalar scenarioPRJP1.node[20].lo0.lo 	rcvdPkFromHL:sum(packetBytes) 	0
attr interpolationmode  none
attr source  packetReceivedFromUpper
attr title  "packets received from higher layer, sum(packetBytes)"
scalar scenarioPRJP1.node[20].lo0.lo 	passedUpPk:count 	0
attr interpolationmode  none
attr source  packetSentToUpper
attr title  "packets passed to higher layer, count"
scalar scenarioPRJP1.node[20].lo0.lo 	passedUpPk:sum(packetBytes) 	0
attr interpolationmode  none
attr source  packetSentToUpper
attr title  "packets passed to higher layer, sum(packetBytes)"
scalar scenarioPRJP1.node[1].app 	"Total sent" 	5033
scalar scenarioPRJP1.node[1].app 	"Total received" 	2364
scalar scenarioPRJP1.node[1].app 	"Total deleted" 	57
scalar scenarioPRJP1.node[1].app 	dropPk:count 	57
attr interpolationmode  none
attr source  dropPk
attr title  "packets dropped, count"
scalar scenarioPRJP1.node[1].app 	dropPk:sum(packetBytes) 	29184
attr interpolationmode  none
attr source  dropPk
attr title  "packets dropped, sum(packetBytes)"
scalar scenarioPRJP1.node[1].app 	outOfOrderPk:count 	145
attr interpolationmode  none
attr source  outOfOrderPk
attr title  "packets received out of order, count"
scalar scenarioPRJP1.node[1].app 	outOfOrderPk:sum(packetBytes) 	74240
attr interpolationmode  none
attr source  outOfOrderPk
attr title  "packets received out of order, sum(packetBytes)"
scalar scenarioPRJP1.node[1].app 	rcvdPk:count 	2364
attr interpolationmode  none
attr source  rcvdPk
attr title  "packets received, count"
scalar scenarioPRJP1.node[1].app 	rcvdPk:sum(packetBytes) 	1210368
attr interpolationmode  none
attr source  rcvdPk
attr title  "packets received, sum(packetBytes)"
statistic scenarioPRJP1.node[1].app 	endToEndDelay:histogram
field count 2364
field mean 0.91798729094168
field stddev 2.4090538790653
field sum 2170.1219557861
field sqrsum 15705.910794667
field min 0.000867388864
field max 19.701988551925
attr interpolationmode  none
attr source  messageAge(rcvdPk)
attr title  "delay, histogram"
attr unit  s
bin	-INF	0
bin	-8.3368490000305	0
bin	-7.2251534815112	0
bin	-6.113457962992	0
bin	-5.0017624444727	0
bin	-3.8900669259534	0
bin	-2.7783714074342	0
bin	-1.6666758889149	0
bin	-0.55498037039564	1788
bin	0.55671514812363	275
bin	1.6684106666429	117
bin	2.7801061851622	41
bin	3.8918017036814	30
bin	5.0034972222007	16
bin	6.11519274072	18
bin	7.2268882592392	12
bin	8.3385837777585	15
bin	9.4502792962778	10
bin	10.561974814797	4
bin	11.673670333316	6
bin	12.785365851836	3
bin	13.897061370355	14
bin	15.008756888874	2
bin	16.120452407393	8
bin	17.232147925913	0
bin	18.343843444432	3
bin	19.455538962951	2
bin	20.56723448147	0
bin	21.67892999999	0
bin	22.790625518509	0
bin	23.902321037028	0
bin	25.014016555547	0
scalar scenarioPRJP1.node[1].app 	sentPk:count 	5033
attr interpolationmode  none
attr source  sentPk
attr title  "packets sent, count"
scalar scenarioPRJP1.node[1].app 	sentPk:sum(packetBytes) 	2576896
attr interpolationmode  none
attr source  sentPk
attr title  "packets sent, sum(packetBytes)"
scalar scenarioPRJP1.node[1].udp 	droppedPkBadChecksum:count 	0
attr interpolationmode  none
attr title  "packets dropped (checksum error), count"
scalar scenarioPRJP1.node[1].udp 	droppedPkWrongPort:count 	6
attr interpolationmode  none
attr title  "packets dropped (wrong port), count"
scalar scenarioPRJP1.node[1].udp 	passedUpPk:count 	2566
attr interpolationmode  none
attr title  "packets passed up, count"
scalar scenarioPRJP1.node[1].udp 	rcvdPk:count 	2572
attr interpolationmode  none
attr source  rcvdPk
attr title  "packets received, count"
scalar scenarioPRJP1.node[1].udp 	rcvdPk:sum(packetBytes) 	1337440
attr interpolationmode  none
attr source  rcvdPk
attr title  "packets received, sum(packetBytes)"
scalar scenarioPRJP1.node[1].udp 	sentPk:count 	5033
attr interpolationmode  none
attr source  sentPk
attr title  "packets sent, count"
scalar scenarioPRJP1.node[1].udp 	sentPk:sum(packetBytes) 	2617160
attr interpolationmode  none
attr source  sentPk
attr title  "packets sent, sum(packetBytes)"
scalar scenarioPRJP1.node[1].networkLayer.arp 	failedARPResolution:count 	85
attr title  "ARP failed resolutions, count"
scalar scenarioPRJP1.node[1].networkLayer.arp 	completedARPResolution:count 	5110
attr title  "ARP completed resolutions, count"
scalar scenarioPRJP1.node[1].networkLayer.arp 	initiatedARPResolution:count 	170
attr title  "ARP initiated resolutions, count"
scalar scenarioPRJP1.node[1].networkLayer.arp 	sentReply:count 	85
attr title  "ARP replies sent, count"
scalar scenarioPRJP1.node[1].networkLayer.arp 	sentReq:count 	403
attr title  "ARP request sent, count"
scalar scenarioPRJP1.node[1].mobility 	startTime 	0.1
scalar scenarioPRJP1.node[1].mobility 	totalTime 	1899.9
scalar scenarioPRJP1.node[1].mobility 	stopTime 	1900
scalar scenarioPRJP1.node[1].mobility 	minSpeed 	2.4754576197442e-13
scalar scenarioPRJP1.node[1].mobility 	maxSpeed 	16.37802077704
scalar scenarioPRJP1.node[1].mobility 	totalDistance 	17933.010168919
scalar scenarioPRJP1.node[1].mobility 	totalCO2Emission 	4627.0817016712
scalar scenarioPRJP1.node[1].wlan[0].mgmt 	dataQueueLen:max 	100
attr interpolationmode  sample-hold
attr title  "data queue length, max"
scalar scenarioPRJP1.node[1].wlan[0].mgmt 	dataQueueLen:timeavg 	1.4469889596601
attr interpolationmode  sample-hold
attr title  "data queue length, timeavg"
scalar scenarioPRJP1.node[1].wlan[0].mgmt 	dropPkByQueue:count 	4
attr interpolationmode  none
attr source  dropPkByQueue
attr title  "packets dropped by queue, count"
scalar scenarioPRJP1.node[1].wlan[0].mgmt 	dropPkByQueue:sum(packetBytes) 	348
attr interpolationmode  none
attr source  dropPkByQueue
attr title  "packets dropped by queue, sum(packetBytes)"
scalar scenarioPRJP1.node[1].wlan[0].mac 	"number of received packets" 	13921
scalar scenarioPRJP1.node[1].wlan[0].mac 	"number of collisions" 	1233852
scalar scenarioPRJP1.node[1].wlan[0].mac 	"number of internal collisions" 	1
scalar scenarioPRJP1.node[1].wlan[0].mac 	"number of retry for AC 0" 	40103
scalar scenarioPRJP1.node[1].wlan[0].mac 	"number of retry for AC 1" 	5
scalar scenarioPRJP1.node[1].wlan[0].mac 	"number of retry for AC 2" 	0
scalar scenarioPRJP1.node[1].wlan[0].mac 	"number of retry for AC 3" 	0
scalar scenarioPRJP1.node[1].wlan[0].mac 	"sent and received bits" 	49597376
scalar scenarioPRJP1.node[1].wlan[0].mac 	"sent packet within AC 0" 	12086
scalar scenarioPRJP1.node[1].wlan[0].mac 	"sent packet within AC 1" 	10
scalar scenarioPRJP1.node[1].wlan[0].mac 	"sent packet within AC 2" 	0
scalar scenarioPRJP1.node[1].wlan[0].mac 	"sent packet within AC 3" 	0
scalar scenarioPRJP1.node[1].wlan[0].mac 	"sent in TXOP " 	0
scalar scenarioPRJP1.node[1].wlan[0].mac 	"sentWithoutRetry AC 0" 	5262
scalar scenarioPRJP1.node[1].wlan[0].mac 	"sentWithoutRetry AC 1" 	8
scalar scenarioPRJP1.node[1].wlan[0].mac 	"sentWithoutRetry AC 2" 	0
scalar scenarioPRJP1.node[1].wlan[0].mac 	"sentWithoutRetry AC 3" 	0
scalar scenarioPRJP1.node[1].wlan[0].mac 	"numGivenUp AC 0" 	3666
scalar scenarioPRJP1.node[1].wlan[0].mac 	"numGivenUp AC 1" 	0
scalar scenarioPRJP1.node[1].wlan[0].mac 	"numGivenUp AC 2" 	0
scalar scenarioPRJP1.node[1].wlan[0].mac 	"numGivenUp AC 3" 	0
scalar scenarioPRJP1.node[1].wlan[0].mac 	"numDropped AC 0" 	4972
scalar scenarioPRJP1.node[1].wlan[0].mac 	"numDropped AC 1" 	0
scalar scenarioPRJP1.node[1].wlan[0].mac 	"numDropped AC 2" 	0
scalar scenarioPRJP1.node[1].wlan[0].mac 	"numDropped AC 3" 	0
scalar scenarioPRJP1.node[1].wlan[0].mac 	rcvdPkFromLL:count 	3111765
attr interpolationmode  none
attr source  packetReceivedFromLower
attr title  "packets received from lower layer, count"
scalar scenarioPRJP1.node[1].wlan[0].mac 	rcvdPkFromLL:sum(packetBytes) 	549337674
attr interpolationmode  none
attr source  packetReceivedFromLower
attr title  "packets received from lower layer, sum(packetBytes)"
scalar scenarioPRJP1.node[1].wlan[0].mac 	sentDownPk:count 	107157
attr interpolationmode  none
attr source  packetSentToLower
attr title  "packets sent to lower layer, count"
scalar scenarioPRJP1.node[1].wlan[0].mac 	sentDownPk:sum(packetBytes) 	20883246
attr interpolationmode  none
attr source  packetSentToLower
attr title  "packets sent to lower layer, sum(packetBytes)"
scalar scenarioPRJP1.node[1].wlan[0].mac 	rcvdPkFromHL:count 	58101
attr interpolationmode  none
attr source  packetReceivedFromUpper
attr title  "packets received from higher layer, count"
scalar scenarioPRJP1.node[1].wlan[0].mac 	rcvdPkFromHL:sum(packetBytes) 	8160540
attr interpolationmode  none
attr source  packetReceivedFromUpper
attr title  "packets received from higher layer, sum(packetBytes)"
scalar scenarioPRJP1.node[1].wlan[0].mac 	passedUpPk:count 	621122
attr interpolationmode  none
attr source  packetSentToUpper
attr title  "packets passed to higher layer, count"
scalar scenarioPRJP1.node[1].wlan[0].mac 	passedUpPk:sum(packetBytes) 	56227536
attr interpolationmode  none
attr source  packetSentToUpper
attr title  "packets passed to higher layer, sum(packetBytes)"
statistic scenarioPRJP1.node[1].wlan[0].radio 	radioChannel:histogram
field count 1
field mean 3
field stddev -nan
field sum 3
field sqrsum 9
field min 3
field max 3
attr interpolationmode  sample-hold
attr source  radioChannelChanged
attr title  "Radio channel, histogram"
bin	-INF	0
bin	2	0
bin	3	1
bin	4	0
scalar scenarioPRJP1.node[1].wlan[0].radio 	transmissionState:count 	428628
attr interpolationmode  sample-hold
attr source  transmissionStateChanged
attr title  "Radio transmission state, count"
scalar scenarioPRJP1.node[1].wlan[0].radio 	receptionState:count 	7265290
attr interpolationmode  sample-hold
attr source  receptionStateChanged
attr title  "Radio reception state, count"
scalar scenarioPRJP1.node[1].wlan[0].radio 	radioMode:count 	214316
attr interpolationmode  sample-hold
attr source  radioModeChanged
attr title  "Radio mode, count"
statistic scenarioPRJP1.node[1].wlan[0].radio 	symbolErrorRate:histogram
field count 0
field mean -nan
field stddev -nan
field sum 0
field sqrsum 0
field min -nan
field max -nan
attr source  symbolErrorRate
attr title  "Symbol error rate, histogram"
bin	-INF	0
bin	-0.5	0
bin	-0.46666666666667	0
bin	-0.43333333333333	0
bin	-0.4	0
bin	-0.36666666666667	0
bin	-0.33333333333333	0
bin	-0.3	0
bin	-0.26666666666667	0
bin	-0.23333333333333	0
bin	-0.2	0
bin	-0.16666666666667	0
bin	-0.13333333333333	0
bin	-0.1	0
bin	-0.066666666666667	0
bin	-0.033333333333333	0
bin	-6.9388939039072e-18	0
bin	0.033333333333333	0
bin	0.066666666666667	0
bin	0.1	0
bin	0.13333333333333	0
bin	0.16666666666667	0
bin	0.2	0
bin	0.23333333333333	0
bin	0.26666666666667	0
bin	0.3	0
bin	0.33333333333333	0
bin	0.36666666666667	0
bin	0.4	0
bin	0.43333333333333	0
bin	0.46666666666667	0
bin	0.5	0
statistic scenarioPRJP1.node[1].wlan[0].radio 	bitErrorRate:histogram
field count 0
field mean -nan
field stddev -nan
field sum 0
field sqrsum 0
field min -nan
field max -nan
attr source  bitErrorRate
attr title  "Bit error rate, histogram"
bin	-INF	0
bin	-0.5	0
bin	-0.46666666666667	0
bin	-0.43333333333333	0
bin	-0.4	0
bin	-0.36666666666667	0
bin	-0.33333333333333	0
bin	-0.3	0
bin	-0.26666666666667	0
bin	-0.23333333333333	0
bin	-0.2	0
bin	-0.16666666666667	0
bin	-0.13333333333333	0
bin	-0.1	0
bin	-0.066666666666667	0
bin	-0.033333333333333	0
bin	-6.9388939039072e-18	0
bin	0.033333333333333	0
bin	0.066666666666667	0
bin	0.1	0
bin	0.13333333333333	0
bin	0.16666666666667	0
bin	0.2	0
bin	0.23333333333333	0
bin	0.26666666666667	0
bin	0.3	0
bin	0.33333333333333	0
bin	0.36666666666667	0
bin	0.4	0
bin	0.43333333333333	0
bin	0.46666666666667	0
bin	0.5	0
statistic scenarioPRJP1.node[1].wlan[0].radio 	packetErrorRate:histogram
field count 3111765
field mean 0.37701721742919
field stddev 0.47880127360182
field sum 1173188.9815936
field sqrsum 1155686.394887
field min 0
field max 1
attr source  packetErrorRate
attr title  "Packet error rate, histogram"
bin	-INF	0
bin	-0.5	0
bin	-0.43333333333333	0
bin	-0.36666666666667	0
bin	-0.3	0
bin	-0.23333333333333	0
bin	-0.16666666666667	0
bin	-0.1	0
bin	-0.033333333333333	1867509
bin	0.033333333333333	28343
bin	0.1	14026
bin	0.16666666666667	9597
bin	0.23333333333333	7522
bin	0.3	6378
bin	0.36666666666667	5563
bin	0.43333333333333	4954
bin	0.5	4813
bin	0.56666666666667	4676
bin	0.63333333333333	4604
bin	0.7	4796
bin	0.76666666666667	5251
bin	0.83333333333333	6168
bin	0.9	9641
bin	0.96666666666667	1127924
bin	1.0333333333333	0
bin	1.1	0
bin	1.1666666666667	0
bin	1.2333333333333	0
bin	1.3	0
bin	1.3666666666667	0
bin	1.4333333333333	0
bin	1.5	0
statistic scenarioPRJP1.node[1].wlan[0].radio 	minSNIR:histogram
field count 3111765
field mean 28792.819228801
field stddev 670472.32251748
field sum 89596487127.51
field sqrsum 1.4014207625728e+18
field min 2.1448640527119e-06
field max 218813262.70167
attr source  minSNIR
attr title  "Min SNIR, histogram"
bin	-INF	0
bin	-2709508.2722186	0
bin	-2348240.5025575	0
bin	-1986972.7328963	0
bin	-1625704.9632352	0
bin	-1264437.193574	0
bin	-903169.42391287	0
bin	-541901.65425171	0
bin	-180633.88459056	3084565
bin	180633.88507059	9764
bin	541901.65473174	4300
bin	903169.4243929	2269
bin	1264437.194054	1473
bin	1625704.9637152	1039
bin	1986972.7333764	808
bin	2348240.5030375	633
bin	2709508.2726987	527
bin	3070776.0423598	470
bin	3432043.812021	411
bin	3793311.5816821	368
bin	4154579.3513433	292
bin	4515847.1210044	290
bin	4877114.8906656	293
bin	5238382.6603267	224
bin	5599650.4299879	226
bin	5960918.199649	209
bin	6322185.9693102	200
bin	6683453.7389713	166
bin	7044721.5086325	169
bin	7405989.2782936	142
bin	7767257.0479548	136
bin	8128524.817616	2791
scalar scenarioPRJP1.node[1].lo0.lo 	droppedPkBitError:count 	0
attr interpolationmode  none
attr source  dropPkBitError
attr title  "packets dropped/bit error, count"
scalar scenarioPRJP1.node[1].lo0.lo 	droppedPkBitError:sum(packetBytes) 	0
attr interpolationmode  none
attr source  dropPkBitError
attr title  "packets dropped/bit error, sum(packetBytes)"
scalar scenarioPRJP1.node[1].lo0.lo 	rcvdPkFromHL:count 	0
attr interpolationmode  none
attr source  packetReceivedFromUpper
attr title  "packets received from higher layer, count"
scalar scenarioPRJP1.node[1].lo0.lo 	rcvdPkFromHL:sum(packetBytes) 	0
attr interpolationmode  none
attr source  packetReceivedFromUpper
attr title  "packets received from higher layer, sum(packetBytes)"
scalar scenarioPRJP1.node[1].lo0.lo 	passedUpPk:count 	0
attr interpolationmode  none
attr source  packetSentToUpper
attr title  "packets passed to higher layer, count"
scalar scenarioPRJP1.node[1].lo0.lo 	passedUpPk:sum(packetBytes) 	0
attr interpolationmode  none
attr source  packetSentToUpper
attr title  "packets passed to higher layer, sum(packetBytes)"
scalar scenarioPRJP1.node[21].app 	"Total sent" 	5011
scalar scenarioPRJP1.node[21].app 	"Total received" 	2332
scalar scenarioPRJP1.node[21].app 	"Total deleted" 	64
scalar scenarioPRJP1.node[21].app 	dropPk:count 	64
attr interpolationmode  none
attr source  dropPk
attr title  "packets dropped, count"
scalar scenarioPRJP1.node[21].app 	dropPk:sum(packetBytes) 	32768
attr interpolationmode  none
attr source  dropPk
attr title  "packets dropped, sum(packetBytes)"
scalar scenarioPRJP1.node[21].app 	outOfOrderPk:count 	172
attr interpolationmode  none
attr source  outOfOrderPk
attr title  "packets received out of order, count"
scalar scenarioPRJP1.node[21].app 	outOfOrderPk:sum(packetBytes) 	88064
attr interpolationmode  none
attr source  outOfOrderPk
attr title  "packets received out of order, sum(packetBytes)"
scalar scenarioPRJP1.node[21].app 	rcvdPk:count 	2332
attr interpolationmode  none
attr source  rcvdPk
attr title  "packets received, count"
scalar scenarioPRJP1.node[21].app 	rcvdPk:sum(packetBytes) 	1193984
attr interpolationmode  none
attr source  rcvdPk
attr title  "packets received, sum(packetBytes)"
statistic scenarioPRJP1.node[21].app 	endToEndDelay:histogram
field count 2332
field mean 1.0192133885407
field stddev 2.6496324723815
field sum 2376.8056220768
field sqrsum 18787.379380386
field min 0.000891640539
field max 19.983890892167
attr interpolationmode  none
attr source  messageAge(rcvdPk)
attr title  "delay, histogram"
attr unit  s
bin	-INF	0
bin	-7.209367497701	0
bin	-6.247950221663	0
bin	-5.286532945625	0
bin	-4.325115669587	0
bin	-3.363698393549	0
bin	-2.402281117511	0
bin	-1.440863841473	0
bin	-0.479446565435	1736
bin	0.481970710603	227
bin	1.443387986641	141
bin	2.404805262679	50
bin	3.366222538717	26
bin	4.327639814755	20
bin	5.289057090793	20
bin	6.250474366831	21
bin	7.211891642869	9
bin	8.173308918907	12
bin	9.134726194945	10
bin	10.096143470983	14
bin	11.057560747021	4
bin	12.018978023059	9
bin	12.980395299097	2
bin	13.941812575135	9
bin	14.903229851173	4
bin	15.864647127211	3
bin	16.826064403249	3
bin	17.787481679287	2
bin	18.748898955325	8
bin	19.710316231363	2
bin	20.671733507401	0
bin	21.633150783439	0
scalar scenarioPRJP1.node[21].app 	sentPk:count 	5011
attr interpolationmode  none
attr source  sentPk
attr title  "packets sent, count"
scalar scenarioPRJP1.node[21].app 	sentPk:sum(packetBytes) 	2565632
attr interpolationmode  none
attr source  sentPk
attr title  "packets sent, sum(packetBytes)"
scalar scenarioPRJP1.node[21].udp 	droppedPkBadChecksum:count 	0
attr interpolationmode  none
attr title  "packets dropped (checksum error), count"
scalar scenarioPRJP1.node[21].udp 	droppedPkWrongPort:count 	1
attr interpolationmode  none
attr title  "packets dropped (wrong port), count"
scalar scenarioPRJP1.node[21].udp 	passedUpPk:count 	2568
attr interpolationmode  none
attr title  "packets passed up, count"
scalar scenarioPRJP1.node[21].udp 	rcvdPk:count 	2569
attr interpolationmode  none
attr source  rcvdPk
attr title  "packets received, count"
scalar scenarioPRJP1.node[21].udp 	rcvdPk:sum(packetBytes) 	1335880
attr interpolationmode  none
attr source  rcvdPk
attr title  "packets received, sum(packetBytes)"
scalar scenarioPRJP1.node[21].udp 	sentPk:count 	5011
attr interpolationmode  none
attr source  sentPk
attr title  "packets sent, count"
scalar scenarioPRJP1.node[21].udp 	sentPk:sum(packetBytes) 	2605720
attr interpolationmode  none
attr source  sentPk
attr title  "packets sent, sum(packetBytes)"
scalar scenarioPRJP1.node[21].networkLayer.arp 	failedARPResolution:count 	85
attr title  "ARP failed resolutions, count"
scalar scenarioPRJP1.node[21].networkLayer.arp 	completedARPResolution:count 	5444
attr title  "ARP completed resolutions, count"
scalar scenarioPRJP1.node[21].networkLayer.arp 	initiatedARPResolution:count 	174
attr title  "ARP initiated resolutions, count"
scalar scenarioPRJP1.node[21].networkLayer.arp 	sentReply:count 	57
attr title  "ARP replies sent, count"
scalar scenarioPRJP1.node[21].networkLayer.arp 	sentReq:count 	408
attr title  "ARP request sent, count"
scalar scenarioPRJP1.node[21].mobility 	startTime 	2.5
scalar scenarioPRJP1.node[21].mobility 	totalTime 	1897.5
scalar scenarioPRJP1.node[21].mobility 	stopTime 	1900
scalar scenarioPRJP1.node[21].mobility 	minSpeed 	2.4754434612704e-13
scalar scenarioPRJP1.node[21].mobility 	maxSpeed 	18.802805771042
scalar scenarioPRJP1.node[21].mobility 	totalDistance 	18992.539836604
scalar scenarioPRJP1.node[21].mobility 	totalCO2Emission 	5160.1641374596
scalar scenarioPRJP1.node[21].wlan[0].mgmt 	dataQueueLen:max 	89
attr interpolationmode  sample-hold
attr title  "data queue length, max"
scalar scenarioPRJP1.node[21].wlan[0].mgmt 	dataQueueLen:timeavg 	1.623056980445
attr interpolationmode  sample-hold
attr title  "data queue length, timeavg"
scalar scenarioPRJP1.node[21].wlan[0].mgmt 	dropPkByQueue:count 	0
attr interpolationmode  none
attr source  dropPkByQueue
attr title  "packets dropped by queue, count"
scalar scenarioPRJP1.node[21].wlan[0].mgmt 	dropPkByQueue:sum(packetBytes) 	0
attr interpolationmode  none
attr source  dropPkByQueue
attr title  "packets dropped by queue, sum(packetBytes)"
scalar scenarioPRJP1.node[21].wlan[0].mac 	"number of received packets" 	15503
scalar scenarioPRJP1.node[21].wlan[0].mac 	"number of collisions" 	1241381
scalar scenarioPRJP1.node[21].wlan[0].mac 	"number of internal collisions" 	0
scalar scenarioPRJP1.node[21].wlan[0].mac 	"number of retry for AC 0" 	40865
scalar scenarioPRJP1.node[21].wlan[0].mac 	"number of retry for AC 1" 	0
scalar scenarioPRJP1.node[21].wlan[0].mac 	"number of retry for AC 2" 	0
scalar scenarioPRJP1.node[21].wlan[0].mac 	"number of retry for AC 3" 	0
scalar scenarioPRJP1.node[21].wlan[0].mac 	"sent and received bits" 	49956512
scalar scenarioPRJP1.node[21].wlan[0].mac 	"sent packet within AC 0" 	12626
scalar scenarioPRJP1.node[21].wlan[0].mac 	"sent packet within AC 1" 	1
scalar scenarioPRJP1.node[21].wlan[0].mac 	"sent packet within AC 2" 	0
scalar scenarioPRJP1.node[21].wlan[0].mac 	"sent packet within AC 3" 	0
scalar scenarioPRJP1.node[21].wlan[0].mac 	"sent in TXOP " 	0
scalar scenarioPRJP1.node[21].wlan[0].mac 	"sentWithoutRetry AC 0" 	5311
scalar scenarioPRJP1.node[21].wlan[0].mac 	"sentWithoutRetry AC 1" 	1
scalar scenarioPRJP1.node[21].wlan[0].mac 	"sentWithoutRetry AC 2" 	0
scalar scenarioPRJP1.node[21].wlan[0].mac 	"sentWithoutRetry AC 3" 	0
scalar scenarioPRJP1.node[21].wlan[0].mac 	"numGivenUp AC 0" 	3625
scalar scenarioPRJP1.node[21].wlan[0].mac 	"numGivenUp AC 1" 	0
scalar scenarioPRJP1.node[21].wlan[0].mac 	"numGivenUp AC 2" 	0
scalar scenarioPRJP1.node[21].wlan[0].mac 	"numGivenUp AC 3" 	0
scalar scenarioPRJP1.node[21].wlan[0].mac 	"numDropped AC 0" 	5079
scalar scenarioPRJP1.node[21].wlan[0].mac 	"numDropped AC 1" 	0
scalar scenarioPRJP1.node[21].wlan[0].mac 	"numDropped AC 2" 	0
scalar scenarioPRJP1.node[21].wlan[0].mac 	"numDropped AC 3" 	0
scalar scenarioPRJP1.node[21].wlan[0].mac 	rcvdPkFromLL:count 	3114788
attr interpolationmode  none
attr source  packetReceivedFromLower
attr title  "packets received from lower layer, count"
scalar scenarioPRJP1.node[21].wlan[0].mac 	rcvdPkFromLL:sum(packetBytes) 	549487072
attr interpolationmode  none
attr source  packetReceivedFromLower
attr title  "packets received from lower layer, sum(packetBytes)"
scalar scenarioPRJP1.node[21].wlan[0].mac 	sentDownPk:count 	109617
attr interpolationmode  none
attr source  packetSentToLower
attr title  "packets sent to lower layer, count"
scalar scenarioPRJP1.node[21].wlan[0].mac 	sentDownPk:sum(packetBytes) 	21250906
attr interpolationmode  none
attr source  packetSentToLower
attr title  "packets sent to lower layer, sum(packetBytes)"
scalar scenarioPRJP1.node[21].wlan[0].mac 	rcvdPkFromHL:count 	58328
attr interpolationmode  none
attr source  packetReceivedFromUpper
attr title  "packets received from higher layer, count"
scalar scenarioPRJP1.node[21].wlan[0].mac 	rcvdPkFromHL:sum(packetBytes) 	8248620
attr interpolationmode  none
attr source  packetReceivedFromUpper
attr title  "packets received from higher layer, sum(packetBytes)"
scalar scenarioPRJP1.node[21].wlan[0].mac 	passedUpPk:count 	619986
attr interpolationmode  none
attr source  packetSentToUpper
attr title  "packets passed to higher layer, count"
scalar scenarioPRJP1.node[21].wlan[0].mac 	passedUpPk:sum(packetBytes) 	56236892
attr interpolationmode  none
attr source  packetSentToUpper
attr title  "packets passed to higher layer, sum(packetBytes)"
statistic scenarioPRJP1.node[21].wlan[0].radio 	radioChannel:histogram
field count 1
field mean 3
field stddev -nan
field sum 3
field sqrsum 9
field min 3
field max 3
attr interpolationmode  sample-hold
attr source  radioChannelChanged
attr title  "Radio channel, histogram"
bin	-INF	0
bin	2	0
bin	3	1
bin	4	0
scalar scenarioPRJP1.node[21].wlan[0].radio 	transmissionState:count 	438468
attr interpolationmode  sample-hold
attr source  transmissionStateChanged
attr title  "Radio transmission state, count"
scalar scenarioPRJP1.node[21].wlan[0].radio 	receptionState:count 	7278109
attr interpolationmode  sample-hold
attr source  receptionStateChanged
attr title  "Radio reception state, count"
scalar scenarioPRJP1.node[21].wlan[0].radio 	radioMode:count 	219236
attr interpolationmode  sample-hold
attr source  radioModeChanged
attr title  "Radio mode, count"
statistic scenarioPRJP1.node[21].wlan[0].radio 	symbolErrorRate:histogram
field count 0
field mean -nan
field stddev -nan
field sum 0
field sqrsum 0
field min -nan
field max -nan
attr source  symbolErrorRate
attr title  "Symbol error rate, histogram"
bin	-INF	0
bin	-0.5	0
bin	-0.46666666666667	0
bin	-0.43333333333333	0
bin	-0.4	0
bin	-0.36666666666667	0
bin	-0.33333333333333	0
bin	-0.3	0
bin	-0.26666666666667	0
bin	-0.23333333333333	0
bin	-0.2	0
bin	-0.16666666666667	0
bin	-0.13333333333333	0
bin	-0.1	0
bin	-0.066666666666667	0
bin	-0.033333333333333	0
bin	-6.9388939039072e-18	0
bin	0.033333333333333	0
bin	0.066666666666667	0
bin	0.1	0
bin	0.13333333333333	0
bin	0.16666666666667	0
bin	0.2	0
bin	0.23333333333333	0
bin	0.26666666666667	0
bin	0.3	0
bin	0.33333333333333	0
bin	0.36666666666667	0
bin	0.4	0
bin	0.43333333333333	0
bin	0.46666666666667	0
bin	0.5	0
statistic scenarioPRJP1.node[21].wlan[0].radio 	bitErrorRate:histogram
field count 0
field mean -nan
field stddev -nan
field sum 0
field sqrsum 0
field min -nan
field max -nan
attr source  bitErrorRate
attr title  "Bit error rate, histogram"
bin	-INF	0
bin	-0.5	0
bin	-0.46666666666667	0
bin	-0.43333333333333	0
bin	-0.4	0
bin	-0.36666666666667	0
bin	-0.33333333333333	0
bin	-0.3	0
bin	-0.26666666666667	0
bin	-0.23333333333333	0
bin	-0.2	0
bin	-0.16666666666667	0
bin	-0.13333333333333	0
bin	-0.1	0
bin	-0.066666666666667	0
bin	-0.033333333333333	0
bin	-6.9388939039072e-18	0
bin	0.033333333333333	0
bin	0.066666666666667	0
bin	0.1	0
bin	0.13333333333333	0
bin	0.16666666666667	0
bin	0.2	0
bin	0.23333333333333	0
bin	0.26666666666667	0
bin	0.3	0
bin	0.33333333333333	0
bin	0.36666666666667	0
bin	0.4	0
bin	0.43333333333333	0
bin	0.46666666666667	0
bin	0.5	0
statistic scenarioPRJP1.node[21].wlan[0].radio 	packetErrorRate:histogram
field count 3114788
field mean 0.37838233242758
field stddev 0.47900697652693
field sum 1178580.7484574
field sqrsum 1160634.7944929
field min 0
field max 1
attr source  packetErrorRate
attr title  "Packet error rate, histogram"
bin	-INF	0
bin	-0.5	0
bin	-0.43333333333333	0
bin	-0.36666666666667	0
bin	-0.3	0
bin	-0.23333333333333	0
bin	-0.16666666666667	0
bin	-0.1	0
bin	-0.033333333333333	1863163
bin	0.033333333333333	29416
bin	0.1	14359
bin	0.16666666666667	9786
bin	0.23333333333333	7734
bin	0.3	6347
bin	0.36666666666667	5712
bin	0.43333333333333	5224
bin	0.5	4814
bin	0.56666666666667	4784
bin	0.63333333333333	4792
bin	0.7	4814
bin	0.76666666666667	5277
bin	0.83333333333333	6507
bin	0.9	9959
bin	0.96666666666667	1132100
bin	1.0333333333333	0
bin	1.1	0
bin	1.1666666666667	0
bin	1.2333333333333	0
bin	1.3	0
bin	1.3666666666667	0
bin	1.4333333333333	0
bin	1.5	0
statistic scenarioPRJP1.node[21].wlan[0].radio 	minSNIR:histogram
field count 3114788
field mean 20488.189092344
field stddev 480688.53589346
field sum 63816365526.563
field sqrsum 7.2101474017152e+17
field min 4.5399862595461e-06
field max 193426287.64045
attr source  minSNIR
attr title  "Min SNIR, histogram"
bin	-INF	0
bin	-601396.49953609	0
bin	-521210.29957025	0
bin	-441024.09960442	0
bin	-360837.89963858	0
bin	-280651.69967274	0
bin	-200465.4997069	0
bin	-120279.29974106	0
bin	-40093.099775224	3073922
bin	40093.100190615	10654
bin	120279.30015645	4030
bin	200465.50012229	2898
bin	280651.70008813	2360
bin	360837.90005397	2023
bin	441024.10001981	1644
bin	521210.29998564	1370
bin	601396.49995148	1163
bin	681582.69991732	1035
bin	761768.89988316	926
bin	841955.099849	790
bin	922141.29981484	648
bin	1002327.4997807	585
bin	1082513.6997465	539
bin	1162699.8997124	514
bin	1242886.0996782	410
bin	1323072.299644	412
bin	1403258.4996099	304
bin	1483444.6995757	351
bin	1563630.8995415	316
bin	1643817.0995074	279
bin	1724003.2994732	254
bin	1804189.4994391	7361
scalar scenarioPRJP1.node[21].lo0.lo 	droppedPkBitError:count 	0
attr interpolationmode  none
attr source  dropPkBitError
attr title  "packets dropped/bit error, count"
scalar scenarioPRJP1.node[21].lo0.lo 	droppedPkBitError:sum(packetBytes) 	0
attr interpolationmode  none
attr source  dropPkBitError
attr title  "packets dropped/bit error, sum(packetBytes)"
scalar scenarioPRJP1.node[21].lo0.lo 	rcvdPkFromHL:count 	0
attr interpolationmode  none
attr source  packetReceivedFromUpper
attr title  "packets received from higher layer, count"
scalar scenarioPRJP1.node[21].lo0.lo 	rcvdPkFromHL:sum(packetBytes) 	0
attr interpolationmode  none
attr source  packetReceivedFromUpper
attr title  "packets received from higher layer, sum(packetBytes)"
scalar scenarioPRJP1.node[21].lo0.lo 	passedUpPk:count 	0
attr interpolationmode  none
attr source  packetSentToUpper
attr title  "packets passed to higher layer, count"
scalar scenarioPRJP1.node[21].lo0.lo 	passedUpPk:sum(packetBytes) 	0
attr interpolationmode  none
attr source  packetSentToUpper
attr title  "packets passed to higher layer, sum(packetBytes)"
scalar scenarioPRJP1.node[2].app 	"Total sent" 	5027
scalar scenarioPRJP1.node[2].app 	"Total received" 	2445
scalar scenarioPRJP1.node[2].app 	"Total deleted" 	45
scalar scenarioPRJP1.node[2].app 	dropPk:count 	45
attr interpolationmode  none
attr source  dropPk
attr title  "packets dropped, count"
scalar scenarioPRJP1.node[2].app 	dropPk:sum(packetBytes) 	23040
attr interpolationmode  none
attr source  dropPk
attr title  "packets dropped, sum(packetBytes)"
scalar scenarioPRJP1.node[2].app 	outOfOrderPk:count 	192
attr interpolationmode  none
attr source  outOfOrderPk
attr title  "packets received out of order, count"
scalar scenarioPRJP1.node[2].app 	outOfOrderPk:sum(packetBytes) 	98304
attr interpolationmode  none
attr source  outOfOrderPk
attr title  "packets received out of order, sum(packetBytes)"
scalar scenarioPRJP1.node[2].app 	rcvdPk:count 	2445
attr interpolationmode  none
attr source  rcvdPk
attr title  "packets received, count"
scalar scenarioPRJP1.node[2].app 	rcvdPk:sum(packetBytes) 	1251840
attr interpolationmode  none
attr source  rcvdPk
attr title  "packets received, sum(packetBytes)"
statistic scenarioPRJP1.node[2].app 	endToEndDelay:histogram
field count 2445
field mean 0.98801013568487
field stddev 2.6178022864979
field sum 2415.6847817495
field sqrsum 19135.181303545
field min 0.000891400031
field max 19.946857224771
attr interpolationmode  none
attr source  messageAge(rcvdPk)
attr title  "delay, histogram"
attr unit  s
bin	-INF	0
bin	-9.76076851732	0
bin	-8.45920394058	0
bin	-7.15763936384	0
bin	-5.8560747871	0
bin	-4.55451021036	0
bin	-3.25294563362	0
bin	-1.95138105688	0
bin	-0.64981648014	1850
bin	0.6517480966	318
bin	1.95331267334	107
bin	3.25487725008	37
bin	4.55644182682	26
bin	5.85800640356	14
bin	7.1595709803	12
bin	8.46113555704	15
bin	9.76270013378	7
bin	11.06426471052	8
bin	12.36582928726	21
bin	13.667393864	8
bin	14.96895844074	4
bin	16.27052301748	5
bin	17.57208759422	2
bin	18.87365217096	11
bin	20.1752167477	0
bin	21.47678132444	0
bin	22.77834590118	0
bin	24.07991047792	0
bin	25.38147505466	0
bin	26.6830396314	0
bin	27.98460420814	0
bin	29.28616878488	0
scalar scenarioPRJP1.node[2].app 	sentPk:count 	5027
attr interpolationmode  none
attr source  sentPk
attr title  "packets sent, count"
scalar scenarioPRJP1.node[2].app 	sentPk:sum(packetBytes) 	2573824
attr interpolationmode  none
attr source  sentPk
attr title  "packets sent, sum(packetBytes)"
scalar scenarioPRJP1.node[2].udp 	droppedPkBadChecksum:count 	0
attr interpolationmode  none
attr title  "packets dropped (checksum error), count"
scalar scenarioPRJP1.node[2].udp 	droppedPkWrongPort:count 	2
attr interpolationmode  none
attr title  "packets dropped (wrong port), count"
scalar scenarioPRJP1.node[2].udp 	passedUpPk:count 	2682
attr interpolationmode  none
attr title  "packets passed up, count"
scalar scenarioPRJP1.node[2].udp 	rcvdPk:count 	2684
attr interpolationmode  none
attr source  rcvdPk
attr title  "packets received, count"
scalar scenarioPRJP1.node[2].udp 	rcvdPk:sum(packetBytes) 	1395680
attr interpolationmode  none
attr source  rcvdPk
attr title  "packets received, sum(packetBytes)"
scalar scenarioPRJP1.node[2].udp 	sentPk:count 	5027
attr interpolationmode  none
attr source  sentPk
attr title  "packets sent, count"
scalar scenarioPRJP1.node[2].udp 	sentPk:sum(packetBytes) 	2614040
attr interpolationmode  none
attr source  sentPk
attr title  "packets sent, sum(packetBytes)"
scalar scenarioPRJP1.node[2].networkLayer.arp 	failedARPResolution:count 	51
attr title  "ARP failed resolutions, count"
scalar scenarioPRJP1.node[2].networkLayer.arp 	completedARPResolution:count 	5185
attr title  "ARP completed resolutions, count"
scalar scenarioPRJP1.node[2].networkLayer.arp 	initiatedARPResolution:count 	136
attr title  "ARP initiated resolutions, count"
scalar scenarioPRJP1.node[2].networkLayer.arp 	sentReply:count 	124
attr title  "ARP replies sent, count"
scalar scenarioPRJP1.node[2].networkLayer.arp 	sentReq:count 	301
attr title  "ARP request sent, count"
scalar scenarioPRJP1.node[2].mobility 	startTime 	0.1
scalar scenarioPRJP1.node[2].mobility 	totalTime 	1899.9
scalar scenarioPRJP1.node[2].mobility 	stopTime 	1900
scalar scenarioPRJP1.node[2].mobility 	minSpeed 	2.4755811043919e-13
scalar scenarioPRJP1.node[2].mobility 	maxSpeed 	15.623497363682
scalar scenarioPRJP1.node[2].mobility 	totalDistance 	18714.186557931
scalar scenarioPRJP1.node[2].mobility 	totalCO2Emission 	4664.443071244
scalar scenarioPRJP1.node[2].wlan[0].mgmt 	dataQueueLen:max 	100
attr interpolationmode  sample-hold
attr title  "data queue length, max"
scalar scenarioPRJP1.node[2].wlan[0].mgmt 	dataQueueLen:timeavg 	1.3230085889158
attr interpolationmode  sample-hold
attr title  "data queue length, timeavg"
scalar scenarioPRJP1.node[2].wlan[0].mgmt 	dropPkByQueue:count 	5
attr interpolationmode  none
attr source  dropPkByQueue
attr title  "packets dropped by queue, count"
scalar scenarioPRJP1.node[2].wlan[0].mgmt 	dropPkByQueue:sum(packetBytes) 	440
attr interpolationmode  none
attr source  dropPkByQueue
attr title  "packets dropped by queue, sum(packetBytes)"
scalar scenarioPRJP1.node[2].wlan[0].mac 	"number of received packets" 	14385
scalar scenarioPRJP1.node[2].wlan[0].mac 	"number of collisions" 	1231215
scalar scenarioPRJP1.node[2].wlan[0].mac 	"number of internal collisions" 	0
scalar scenarioPRJP1.node[2].wlan[0].mac 	"number of retry for AC 0" 	41382
scalar scenarioPRJP1.node[2].wlan[0].mac 	"number of retry for AC 1" 	0
scalar scenarioPRJP1.node[2].wlan[0].mac 	"number of retry for AC 2" 	0
scalar scenarioPRJP1.node[2].wlan[0].mac 	"number of retry for AC 3" 	0
scalar scenarioPRJP1.node[2].wlan[0].mac 	"sent and received bits" 	49425056
scalar scenarioPRJP1.node[2].wlan[0].mac 	"sent packet within AC 0" 	11998
scalar scenarioPRJP1.node[2].wlan[0].mac 	"sent packet within AC 1" 	3
scalar scenarioPRJP1.node[2].wlan[0].mac 	"sent packet within AC 2" 	0
scalar scenarioPRJP1.node[2].wlan[0].mac 	"sent packet within AC 3" 	0
scalar scenarioPRJP1.node[2].wlan[0].mac 	"sent in TXOP " 	0
scalar scenarioPRJP1.node[2].wlan[0].mac 	"sentWithoutRetry AC 0" 	5080
scalar scenarioPRJP1.node[2].wlan[0].mac 	"sentWithoutRetry AC 1" 	3
scalar scenarioPRJP1.node[2].wlan[0].mac 	"sentWithoutRetry AC 2" 	0
scalar scenarioPRJP1.node[2].wlan[0].mac 	"sentWithoutRetry AC 3" 	0
scalar scenarioPRJP1.node[2].wlan[0].mac 	"numGivenUp AC 0" 	3796
scalar scenarioPRJP1.node[2].wlan[0].mac 	"numGivenUp AC 1" 	0
scalar scenarioPRJP1.node[2].wlan[0].mac 	"numGivenUp AC 2" 	0
scalar scenarioPRJP1.node[2].wlan[0].mac 	"numGivenUp AC 3" 	0
scalar scenarioPRJP1.node[2].wlan[0].mac 	"numDropped AC 0" 	5064
scalar scenarioPRJP1.node[2].wlan[0].mac 	"numDropped AC 1" 	0
scalar scenarioPRJP1.node[2].wlan[0].mac 	"numDropped AC 2" 	0
scalar scenarioPRJP1.node[2].wlan[0].mac 	"numDropped AC 3" 	0
scalar scenarioPRJP1.node[2].wlan[0].mac 	rcvdPkFromLL:count 	3108181
attr interpolationmode  none
attr source  packetReceivedFromLower
attr title  "packets received from lower layer, count"
scalar scenarioPRJP1.node[2].wlan[0].mac 	rcvdPkFromLL:sum(packetBytes) 	549086926
attr interpolationmode  none
attr source  packetReceivedFromLower
attr title  "packets received from lower layer, sum(packetBytes)"
scalar scenarioPRJP1.node[2].wlan[0].mac 	sentDownPk:count 	109013
attr interpolationmode  none
attr source  packetSentToLower
attr title  "packets sent to lower layer, count"
scalar scenarioPRJP1.node[2].wlan[0].mac 	sentDownPk:sum(packetBytes) 	21102902
attr interpolationmode  none
attr source  packetSentToLower
attr title  "packets sent to lower layer, sum(packetBytes)"
scalar scenarioPRJP1.node[2].wlan[0].mac 	rcvdPkFromHL:count 	58310
attr interpolationmode  none
attr source  packetReceivedFromUpper
attr title  "packets received from higher layer, count"
scalar scenarioPRJP1.node[2].wlan[0].mac 	rcvdPkFromHL:sum(packetBytes) 	8168012
attr interpolationmode  none
attr source  packetReceivedFromUpper
attr title  "packets received from higher layer, sum(packetBytes)"
scalar scenarioPRJP1.node[2].wlan[0].mac 	passedUpPk:count 	623286
attr interpolationmode  none
attr source  packetSentToUpper
attr title  "packets passed to higher layer, count"
scalar scenarioPRJP1.node[2].wlan[0].mac 	passedUpPk:sum(packetBytes) 	56470400
attr interpolationmode  none
attr source  packetSentToUpper
attr title  "packets passed to higher layer, sum(packetBytes)"
statistic scenarioPRJP1.node[2].wlan[0].radio 	radioChannel:histogram
field count 1
field mean 3
field stddev -nan
field sum 3
field sqrsum 9
field min 3
field max 3
attr interpolationmode  sample-hold
attr source  radioChannelChanged
attr title  "Radio channel, histogram"
bin	-INF	0
bin	2	0
bin	3	1
bin	4	0
scalar scenarioPRJP1.node[2].wlan[0].radio 	transmissionState:count 	436052
attr interpolationmode  sample-hold
attr source  transmissionStateChanged
attr title  "Radio transmission state, count"
scalar scenarioPRJP1.node[2].wlan[0].radio 	receptionState:count 	7261290
attr interpolationmode  sample-hold
attr source  receptionStateChanged
attr title  "Radio reception state, count"
scalar scenarioPRJP1.node[2].wlan[0].radio 	radioMode:count 	218028
attr interpolationmode  sample-hold
attr source  radioModeChanged
attr title  "Radio mode, count"
statistic scenarioPRJP1.node[2].wlan[0].radio 	symbolErrorRate:histogram
field count 0
field mean -nan
field stddev -nan
field sum 0
field sqrsum 0
field min -nan
field max -nan
attr source  symbolErrorRate
attr title  "Symbol error rate, histogram"
bin	-INF	0
bin	-0.5	0
bin	-0.46666666666667	0
bin	-0.43333333333333	0
bin	-0.4	0
bin	-0.36666666666667	0
bin	-0.33333333333333	0
bin	-0.3	0
bin	-0.26666666666667	0
bin	-0.23333333333333	0
bin	-0.2	0
bin	-0.16666666666667	0
bin	-0.13333333333333	0
bin	-0.1	0
bin	-0.066666666666667	0
bin	-0.033333333333333	0
bin	-6.9388939039072e-18	0
bin	0.033333333333333	0
bin	0.066666666666667	0
bin	0.1	0
bin	0.13333333333333	0
bin	0.16666666666667	0
bin	0.2	0
bin	0.23333333333333	0
bin	0.26666666666667	0
bin	0.3	0
bin	0.33333333333333	0
bin	0.36666666666667	0
bin	0.4	0
bin	0.43333333333333	0
bin	0.46666666666667	0
bin	0.5	0
statistic scenarioPRJP1.node[2].wlan[0].radio 	bitErrorRate:histogram
field count 0
field mean -nan
field stddev -nan
field sum 0
field sqrsum 0
field min -nan
field max -nan
attr source  bitErrorRate
attr title  "Bit error rate, histogram"
bin	-INF	0
bin	-0.5	0
bin	-0.46666666666667	0
bin	-0.43333333333333	0
bin	-0.4	0
bin	-0.36666666666667	0
bin	-0.33333333333333	0
bin	-0.3	0
bin	-0.26666666666667	0
bin	-0.23333333333333	0
bin	-0.2	0
bin	-0.16666666666667	0
bin	-0.13333333333333	0
bin	-0.1	0
bin	-0.066666666666667	0
bin	-0.033333333333333	0
bin	-6.9388939039072e-18	0
bin	0.033333333333333	0
bin	0.066666666666667	0
bin	0.1	0
bin	0.13333333333333	0
bin	0.16666666666667	0
bin	0.2	0
bin	0.23333333333333	0
bin	0.26666666666667	0
bin	0.3	0
bin	0.33333333333333	0
bin	0.36666666666667	0
bin	0.4	0
bin	0.43333333333333	0
bin	0.46666666666667	0
bin	0.5	0
statistic scenarioPRJP1.node[2].wlan[0].radio 	packetErrorRate:histogram
field count 3108181
field mean 0.37613944760728
field stddev 0.47848981981559
field sum 1169109.4844035
field sqrsum 1151373.8009368
field min 0
field max 1
attr source  packetErrorRate
attr title  "Packet error rate, histogram"
bin	-INF	0
bin	-0.5	0
bin	-0.43333333333333	0
bin	-0.36666666666667	0
bin	-0.3	0
bin	-0.23333333333333	0
bin	-0.16666666666667	0
bin	-0.1	0
bin	-0.033333333333333	1866954
bin	0.033333333333333	28766
bin	0.1	14339
bin	0.16666666666667	9743
bin	0.23333333333333	7643
bin	0.3	6480
bin	0.36666666666667	5655
bin	0.43333333333333	5064
bin	0.5	4791
bin	0.56666666666667	4582
bin	0.63333333333333	4596
bin	0.7	4841
bin	0.76666666666667	5237
bin	0.83333333333333	6516
bin	0.9	9768
bin	0.96666666666667	1123206
bin	1.0333333333333	0
bin	1.1	0
bin	1.1666666666667	0
bin	1.2333333333333	0
bin	1.3	0
bin	1.3666666666667	0
bin	1.4333333333333	0
bin	1.5	0
statistic scenarioPRJP1.node[2].wlan[0].radio 	minSNIR:histogram
field count 3108181
field mean 22378.506472718
field stddev 524306.35530189
field sum 69556448626.879
field sqrsum 8.5598640620811e+17
field min 1.1962814303389e-06
field max 128460362.33497
attr source  minSNIR
attr title  "Min SNIR, histogram"
bin	-INF	0
bin	-6591.8909074213	0
bin	-5712.9615484568	0
bin	-4834.0321894923	0
bin	-3955.1028305278	0
bin	-3076.1734715633	0
bin	-2197.2441125988	0
bin	-1318.3147536343	0
bin	-439.3853946698	1953555
bin	439.5439642947	516745
bin	1318.4733232592	220111
bin	2197.4026822237	115186
bin	3076.3320411882	68725
bin	3955.2614001527	44513
bin	4834.1907591172	30872
bin	5713.1201180817	21853
bin	6592.0494770462	16398
bin	7470.9788360107	12635
bin	8349.9081949752	9718
bin	9228.8375539396	7713
bin	10107.766912904	6218
bin	10986.696271869	5113
bin	11865.625630833	4209
bin	12744.554989798	3578
bin	13623.484348762	3050
bin	14502.413707727	2641
bin	15381.343066691	2355
bin	16260.272425656	1987
bin	17139.20178462	1781
bin	18018.131143585	1606
bin	18897.060502549	1424
bin	19775.989861514	56195
scalar scenarioPRJP1.node[2].lo0.lo 	droppedPkBitError:count 	0
attr interpolationmode  none
attr source  dropPkBitError
attr title  "packets dropped/bit error, count"
scalar scenarioPRJP1.node[2].lo0.lo 	droppedPkBitError:sum(packetBytes) 	0
attr interpolationmode  none
attr source  dropPkBitError
attr title  "packets dropped/bit error, sum(packetBytes)"
scalar scenarioPRJP1.node[2].lo0.lo 	rcvdPkFromHL:count 	0
attr interpolationmode  none
attr source  packetReceivedFromUpper
attr title  "packets received from higher layer, count"
scalar scenarioPRJP1.node[2].lo0.lo 	rcvdPkFromHL:sum(packetBytes) 	0
attr interpolationmode  none
attr source  packetReceivedFromUpper
attr title  "packets received from higher layer, sum(packetBytes)"
scalar scenarioPRJP1.node[2].lo0.lo 	passedUpPk:count 	0
attr interpolationmode  none
attr source  packetSentToUpper
attr title  "packets passed to higher layer, count"
scalar scenarioPRJP1.node[2].lo0.lo 	passedUpPk:sum(packetBytes) 	0
attr interpolationmode  none
attr source  packetSentToUpper
attr title  "packets passed to higher layer, sum(packetBytes)"
scalar scenarioPRJP1.node[22].app 	"Total sent" 	4986
scalar scenarioPRJP1.node[22].app 	"Total received" 	2310
scalar scenarioPRJP1.node[22].app 	"Total deleted" 	21
scalar scenarioPRJP1.node[22].app 	dropPk:count 	21
attr interpolationmode  none
attr source  dropPk
attr title  "packets dropped, count"
scalar scenarioPRJP1.node[22].app 	dropPk:sum(packetBytes) 	10752
attr interpolationmode  none
attr source  dropPk
attr title  "packets dropped, sum(packetBytes)"
scalar scenarioPRJP1.node[22].app 	outOfOrderPk:count 	59
attr interpolationmode  none
attr source  outOfOrderPk
attr title  "packets received out of order, count"
scalar scenarioPRJP1.node[22].app 	outOfOrderPk:sum(packetBytes) 	30208
attr interpolationmode  none
attr source  outOfOrderPk
attr title  "packets received out of order, sum(packetBytes)"
scalar scenarioPRJP1.node[22].app 	rcvdPk:count 	2310
attr interpolationmode  none
attr source  rcvdPk
attr title  "packets received, count"
scalar scenarioPRJP1.node[22].app 	rcvdPk:sum(packetBytes) 	1182720
attr interpolationmode  none
attr source  rcvdPk
attr title  "packets received, sum(packetBytes)"
statistic scenarioPRJP1.node[22].app 	endToEndDelay:histogram
field count 2310
field mean 0.62962053406469
field stddev 1.7419862313922
field sum 1454.4234336894
field sqrsum 7922.4323731769
field min 0.000892365242
field max 19.054839463213
attr interpolationmode  none
attr source  messageAge(rcvdPk)
attr title  "delay, histogram"
attr unit  s
bin	-INF	0
bin	-4.3319788786055	0
bin	-3.7541721184965	0
bin	-3.1763653583875	0
bin	-2.5985585982785	0
bin	-2.0207518381695	0
bin	-1.4429450780605	0
bin	-0.8651383179515	0
bin	-0.2873315578425	1773
bin	0.2904752022665	177
bin	0.8682819623755	95
bin	1.4460887224845	71
bin	2.0238954825935	45
bin	2.6017022427025	33
bin	3.1795090028115	19
bin	3.7573157629205	19
bin	4.3351225230295	16
bin	4.9129292831385	6
bin	5.4907360432475	6
bin	6.0685428033565	4
bin	6.6463495634655	10
bin	7.2241563235745	4
bin	7.8019630836835	3
bin	8.3797698437925	5
bin	8.9575766039015	3
bin	9.5353833640105	3
bin	10.113190124119	1
bin	10.690996884228	1
bin	11.268803644337	1
bin	11.846610404446	3
bin	12.424417164555	2
bin	13.002223924664	10
scalar scenarioPRJP1.node[22].app 	sentPk:count 	4986
attr interpolationmode  none
attr source  sentPk
attr title  "packets sent, count"
scalar scenarioPRJP1.node[22].app 	sentPk:sum(packetBytes) 	2552832
attr interpolationmode  none
attr source  sentPk
attr title  "packets sent, sum(packetBytes)"
scalar scenarioPRJP1.node[22].udp 	droppedPkBadChecksum:count 	0
attr interpolationmode  none
attr title  "packets dropped (checksum error), count"
scalar scenarioPRJP1.node[22].udp 	droppedPkWrongPort:count 	2
attr interpolationmode  none
attr title  "packets dropped (wrong port), count"
scalar scenarioPRJP1.node[22].udp 	passedUpPk:count 	2390
attr interpolationmode  none
attr title  "packets passed up, count"
scalar scenarioPRJP1.node[22].udp 	rcvdPk:count 	2392
attr interpolationmode  none
attr source  rcvdPk
attr title  "packets received, count"
scalar scenarioPRJP1.node[22].udp 	rcvdPk:sum(packetBytes) 	1243840
attr interpolationmode  none
attr source  rcvdPk
attr title  "packets received, sum(packetBytes)"
scalar scenarioPRJP1.node[22].udp 	sentPk:count 	4986
attr interpolationmode  none
attr source  sentPk
attr title  "packets sent, count"
scalar scenarioPRJP1.node[22].udp 	sentPk:sum(packetBytes) 	2592720
attr interpolationmode  none
attr source  sentPk
attr title  "packets sent, sum(packetBytes)"
scalar scenarioPRJP1.node[22].networkLayer.arp 	failedARPResolution:count 	39
attr title  "ARP failed resolutions, count"
scalar scenarioPRJP1.node[22].networkLayer.arp 	completedARPResolution:count 	5073
attr title  "ARP completed resolutions, count"
scalar scenarioPRJP1.node[22].networkLayer.arp 	initiatedARPResolution:count 	112
attr title  "ARP initiated resolutions, count"
scalar scenarioPRJP1.node[22].networkLayer.arp 	sentReply:count 	169
attr title  "ARP replies sent, count"
scalar scenarioPRJP1.node[22].networkLayer.arp 	sentReq:count 	246
attr title  "ARP request sent, count"
scalar scenarioPRJP1.node[22].mobility 	startTime 	2.5
scalar scenarioPRJP1.node[22].mobility 	totalTime 	1897.5
scalar scenarioPRJP1.node[22].mobility 	stopTime 	1900
scalar scenarioPRJP1.node[22].mobility 	minSpeed 	2.4755931802296e-13
scalar scenarioPRJP1.node[22].mobility 	maxSpeed 	20.846888274385
scalar scenarioPRJP1.node[22].mobility 	totalDistance 	21976.596081012
scalar scenarioPRJP1.node[22].mobility 	totalCO2Emission 	6131.5410979884
scalar scenarioPRJP1.node[22].wlan[0].mgmt 	dataQueueLen:max 	75
attr interpolationmode  sample-hold
attr title  "data queue length, max"
scalar scenarioPRJP1.node[22].wlan[0].mgmt 	dataQueueLen:timeavg 	0.77964357108131
attr interpolationmode  sample-hold
attr title  "data queue length, timeavg"
scalar scenarioPRJP1.node[22].wlan[0].mgmt 	dropPkByQueue:count 	0
attr interpolationmode  none
attr source  dropPkByQueue
attr title  "packets dropped by queue, count"
scalar scenarioPRJP1.node[22].wlan[0].mgmt 	dropPkByQueue:sum(packetBytes) 	0
attr interpolationmode  none
attr source  dropPkByQueue
attr title  "packets dropped by queue, sum(packetBytes)"
scalar scenarioPRJP1.node[22].wlan[0].mac 	"number of received packets" 	12875
scalar scenarioPRJP1.node[22].wlan[0].mac 	"number of collisions" 	1208709
scalar scenarioPRJP1.node[22].wlan[0].mac 	"number of internal collisions" 	1
scalar scenarioPRJP1.node[22].wlan[0].mac 	"number of retry for AC 0" 	39609
scalar scenarioPRJP1.node[22].wlan[0].mac 	"number of retry for AC 1" 	8
scalar scenarioPRJP1.node[22].wlan[0].mac 	"number of retry for AC 2" 	0
scalar scenarioPRJP1.node[22].wlan[0].mac 	"number of retry for AC 3" 	0
scalar scenarioPRJP1.node[22].wlan[0].mac 	"sent and received bits" 	50393856
scalar scenarioPRJP1.node[22].wlan[0].mac 	"sent packet within AC 0" 	12283
scalar scenarioPRJP1.node[22].wlan[0].mac 	"sent packet within AC 1" 	2
scalar scenarioPRJP1.node[22].wlan[0].mac 	"sent packet within AC 2" 	0
scalar scenarioPRJP1.node[22].wlan[0].mac 	"sent packet within AC 3" 	0
scalar scenarioPRJP1.node[22].wlan[0].mac 	"sent in TXOP " 	0
scalar scenarioPRJP1.node[22].wlan[0].mac 	"sentWithoutRetry AC 0" 	5368
scalar scenarioPRJP1.node[22].wlan[0].mac 	"sentWithoutRetry AC 1" 	1
scalar scenarioPRJP1.node[22].wlan[0].mac 	"sentWithoutRetry AC 2" 	0
scalar scenarioPRJP1.node[22].wlan[0].mac 	"sentWithoutRetry AC 3" 	0
scalar scenarioPRJP1.node[22].wlan[0].mac 	"numGivenUp AC 0" 	3571
scalar scenarioPRJP1.node[22].wlan[0].mac 	"numGivenUp AC 1" 	1
scalar scenarioPRJP1.node[22].wlan[0].mac 	"numGivenUp AC 2" 	0
scalar scenarioPRJP1.node[22].wlan[0].mac 	"numGivenUp AC 3" 	0
scalar scenarioPRJP1.node[22].wlan[0].mac 	"numDropped AC 0" 	3287
scalar scenarioPRJP1.node[22].wlan[0].mac 	"numDropped AC 1" 	0
scalar scenarioPRJP1.node[22].wlan[0].mac 	"numDropped AC 2" 	0
scalar scenarioPRJP1.node[22].wlan[0].mac 	"numDropped AC 3" 	0
scalar scenarioPRJP1.node[22].wlan[0].mac 	rcvdPkFromLL:count 	3122540
attr interpolationmode  none
attr source  packetReceivedFromLower
attr title  "packets received from lower layer, count"
scalar scenarioPRJP1.node[22].wlan[0].mac 	rcvdPkFromLL:sum(packetBytes) 	551524326
attr interpolationmode  none
attr source  packetReceivedFromLower
attr title  "packets received from lower layer, sum(packetBytes)"
scalar scenarioPRJP1.node[22].wlan[0].mac 	sentDownPk:count 	105675
attr interpolationmode  none
attr source  packetSentToLower
attr title  "packets sent to lower layer, count"
[...]
field count 1
field mean 3
field stddev -nan
field sum 3
field sqrsum 9
field min 3
field max 3
attr interpolationmode  sample-hold
attr source  radioChannelChanged
attr title  "Radio channel, histogram"
bin	-INF	0
bin	2	0
bin	3	1
bin	4	0
scalar scenarioPRJP1.node[19].wlan[0].radio 	transmissionState:count 	429384
attr interpolationmode  sample-hold
attr source  transmissionStateChanged
attr title  "Radio transmission state, count"
scalar scenarioPRJP1.node[19].wlan[0].radio 	receptionState:count 	7359282
attr interpolationmode  sample-hold
attr source  receptionStateChanged
attr title  "Radio reception state, count"
scalar scenarioPRJP1.node[19].wlan[0].radio 	radioMode:count 	214694
attr interpolationmode  sample-hold
attr source  radioModeChanged
attr title  "Radio mode, count"
statistic scenarioPRJP1.node[19].wlan[0].radio 	symbolErrorRate:histogram
field count 0
field mean -nan
field stddev -nan
field sum 0
field sqrsum 0
field min -nan
field max -nan
attr source  symbolErrorRate
attr title  "Symbol error rate, histogram"
bin	-INF	0
bin	-0.5	0
bin	-0.46666666666667	0
bin	-0.43333333333333	0
bin	-0.4	0
bin	-0.36666666666667	0
bin	-0.33333333333333	0
bin	-0.3	0
bin	-0.26666666666667	0
bin	-0.23333333333333	0
bin	-0.2	0
bin	-0.16666666666667	0
bin	-0.13333333333333	0
bin	-0.1	0
bin	-0.066666666666667	0
bin	-0.033333333333333	0
bin	-6.9388939039072e-18	0
bin	0.033333333333333	0
bin	0.066666666666667	0
bin	0.1	0
bin	0.13333333333333	0
bin	0.16666666666667	0
bin	0.2	0
bin	0.23333333333333	0
bin	0.26666666666667	0
bin	0.3	0
bin	0.33333333333333	0
bin	0.36666666666667	0
bin	0.4	0
bin	0.43333333333333	0
bin	0.46666666666667	0
bin	0.5	0
statistic scenarioPRJP1.node[19].wlan[0].radio 	bitErrorRate:histogram
field count 0
field mean -nan
field stddev -nan
field sum 0
field sqrsum 0
field min -nan
field max -nan
attr source  bitErrorRate
attr title  "Bit error rate, histogram"
bin	-INF	0
bin	-0.5	0
bin	-0.46666666666667	0
bin	-0.43333333333333	0
bin	-0.4	0
bin	-0.36666666666667	0
bin	-0.33333333333333	0
bin	-0.3	0
bin	-0.26666666666667	0
bin	-0.23333333333333	0
bin	-0.2	0
bin	-0.16666666666667	0
bin	-0.13333333333333	0
bin	-0.1	0
bin	-0.066666666666667	0
bin	-0.033333333333333	0
bin	-6.9388939039072e-18	0
bin	0.033333333333333	0
bin	0.066666666666667	0
bin	0.1	0
bin	0.13333333333333	0
bin	0.16666666666667	0
bin	0.2	0
bin	0.23333333333333	0
bin	0.26666666666667	0
bin	0.3	0
bin	0.33333333333333	0
bin	0.36666666666667	0
bin	0.4	0
bin	0.43333333333333	0
bin	0.46666666666667	0
bin	0.5	0
statistic scenarioPRJP1.node[19].wlan[0].radio 	packetErrorRate:histogram
field count 3151864
field mean 0.37779905650177
field stddev 0.47912372918621
field sum 1190771.2454219
field sqrsum 1173412.4982558
field min 0
field max 1
attr source  packetErrorRate
attr title  "Packet error rate, histogram"
bin	-INF	0
bin	-0.5	0
bin	-0.43333333333333	0
bin	-0.36666666666667	0
bin	-0.3	0
bin	-0.23333333333333	0
bin	-0.16666666666667	0
bin	-0.1	0
bin	-0.033333333333333	1890957
bin	0.033333333333333	27983
bin	0.1	13719
bin	0.16666666666667	9563
bin	0.23333333333333	7310
bin	0.3	6271
bin	0.36666666666667	5419
bin	0.43333333333333	5061
bin	0.5	4704
bin	0.56666666666667	4592
bin	0.63333333333333	4690
bin	0.7	4914
bin	0.76666666666667	5165
bin	0.83333333333333	6206
bin	0.9	9631
bin	0.96666666666667	1145679
bin	1.0333333333333	0
bin	1.1	0
bin	1.1666666666667	0
bin	1.2333333333333	0
bin	1.3	0
bin	1.3666666666667	0
bin	1.4333333333333	0
bin	1.5	0
statistic scenarioPRJP1.node[19].wlan[0].radio 	minSNIR:histogram
field count 3151864
field mean 32609.11689451
field stddev 695226.02587979
field sum 102779501611.6
field sqrsum 1.5267705750033e+18
field min 3.1293669030818e-06
field max 199411664.54852
attr source  minSNIR
attr title  "Min SNIR, histogram"
bin	-INF	0
bin	-10788.523716118	0
bin	-9350.050920409	0
bin	-7911.5781247002	0
bin	-6473.1053289914	0
bin	-5034.6325332826	0
bin	-3596.1597375738	0
bin	-2157.686941865	0
bin	-719.21414615621	2150621
bin	719.25864955258	499182
bin	2157.7314452614	181948
bin	3596.2042409702	89431
bin	5034.677036679	50649
bin	6473.1498323877	31354
bin	7911.6226280965	20827
bin	9350.0954238053	14179
bin	10788.568219514	10626
bin	12227.041015223	7945
bin	13665.513810932	6124
bin	15103.98660664	4827
bin	16542.459402349	4073
bin	17980.932198058	3388
bin	19419.404993767	2810
bin	20857.877789476	2422
bin	22296.350585184	2112
bin	23734.823380893	1859
bin	25173.296176602	1650
bin	26611.768972311	1474
bin	28050.24176802	1304
bin	29488.714563728	1339
bin	30927.187359437	1170
bin	32365.660155146	60550
scalar scenarioPRJP1.node[19].lo0.lo 	droppedPkBitError:count 	0
attr interpolationmode  none
attr source  dropPkBitError
attr title  "packets dropped/bit error, count"
scalar scenarioPRJP1.node[19].lo0.lo 	droppedPkBitError:sum(packetBytes) 	0
attr interpolationmode  none
attr source  dropPkBitError
attr title  "packets dropped/bit error, sum(packetBytes)"
scalar scenarioPRJP1.node[19].lo0.lo 	rcvdPkFromHL:count 	0
attr interpolationmode  none
attr source  packetReceivedFromUpper
attr title  "packets received from higher layer, count"
scalar scenarioPRJP1.node[19].lo0.lo 	rcvdPkFromHL:sum(packetBytes) 	0
attr interpolationmode  none
attr source  packetReceivedFromUpper
attr title  "packets received from higher layer, sum(packetBytes)"
scalar scenarioPRJP1.node[19].lo0.lo 	passedUpPk:count 	0
attr interpolationmode  none
attr source  packetSentToUpper
attr title  "packets passed to higher layer, count"
scalar scenarioPRJP1.node[19].lo0.lo 	passedUpPk:sum(packetBytes) 	0
attr interpolationmode  none
attr source  packetSentToUpper
attr title  "packets passed to higher layer, sum(packetBytes)"
scalar scenarioPRJP1.node[39].app 	"Total sent" 	5014
scalar scenarioPRJP1.node[39].app 	"Total received" 	2322
scalar scenarioPRJP1.node[39].app 	"Total deleted" 	33
scalar scenarioPRJP1.node[39].app 	dropPk:count 	33
attr interpolationmode  none
attr source  dropPk
attr title  "packets dropped, count"
scalar scenarioPRJP1.node[39].app 	dropPk:sum(packetBytes) 	16896
attr interpolationmode  none
attr source  dropPk
attr title  "packets dropped, sum(packetBytes)"
scalar scenarioPRJP1.node[39].app 	outOfOrderPk:count 	111
attr interpolationmode  none
attr source  outOfOrderPk
attr title  "packets received out of order, count"
scalar scenarioPRJP1.node[39].app 	outOfOrderPk:sum(packetBytes) 	56832
attr interpolationmode  none
attr source  outOfOrderPk
attr title  "packets received out of order, sum(packetBytes)"
scalar scenarioPRJP1.node[39].app 	rcvdPk:count 	2322
attr interpolationmode  none
attr source  rcvdPk
attr title  "packets received, count"
scalar scenarioPRJP1.node[39].app 	rcvdPk:sum(packetBytes) 	1188864
attr interpolationmode  none
attr source  rcvdPk
attr title  "packets received, sum(packetBytes)"
statistic scenarioPRJP1.node[39].app 	endToEndDelay:histogram
field count 2322
field mean 0.91193198909836
field stddev 2.3030686459818
field sum 2117.5060786864
field sqrsum 14241.896091855
field min 0.000912789814
field max 19.167339605039
attr interpolationmode  none
attr source  messageAge(rcvdPk)
attr title  "delay, histogram"
attr unit  s
bin	-INF	0
bin	-3.5571292911395	0
bin	-3.0827213966864	0
bin	-2.6083135022332	0
bin	-2.1339056077801	0
bin	-1.659497713327	0
bin	-1.1850898188738	0
bin	-0.7106819244207	0
bin	-0.23627402996757	1613
bin	0.23813386448557	183
bin	0.7125417589387	123
bin	1.1869496533918	83
bin	1.661357547845	63
bin	2.1357654422981	62
bin	2.6101733367512	18
bin	3.0845812312044	23
bin	3.5589891256575	12
bin	4.0333970201106	18
bin	4.5078049145638	14
bin	4.9822128090169	7
bin	5.45662070347	6
bin	5.9310285979232	7
bin	6.4054364923763	9
bin	6.8798443868294	10
bin	7.3542522812826	3
bin	7.8286601757357	5
bin	8.3030680701888	8
bin	8.777475964642	2
bin	9.2518838590951	4
bin	9.7262917535482	4
bin	10.200699648001	4
bin	10.675107542455	41
scalar scenarioPRJP1.node[39].app 	sentPk:count 	5014
attr interpolationmode  none
attr source  sentPk
attr title  "packets sent, count"
scalar scenarioPRJP1.node[39].app 	sentPk:sum(packetBytes) 	2567168
attr interpolationmode  none
attr source  sentPk
attr title  "packets sent, sum(packetBytes)"
scalar scenarioPRJP1.node[39].udp 	droppedPkBadChecksum:count 	0
attr interpolationmode  none
attr title  "packets dropped (checksum error), count"
scalar scenarioPRJP1.node[39].udp 	droppedPkWrongPort:count 	4
attr interpolationmode  none
attr title  "packets dropped (wrong port), count"
scalar scenarioPRJP1.node[39].udp 	passedUpPk:count 	2466
attr interpolationmode  none
attr title  "packets passed up, count"
scalar scenarioPRJP1.node[39].udp 	rcvdPk:count 	2470
attr interpolationmode  none
attr source  rcvdPk
attr title  "packets received, count"
scalar scenarioPRJP1.node[39].udp 	rcvdPk:sum(packetBytes) 	1284400
attr interpolationmode  none
attr source  rcvdPk
attr title  "packets received, sum(packetBytes)"
scalar scenarioPRJP1.node[39].udp 	sentPk:count 	5014
attr interpolationmode  none
attr source  sentPk
attr title  "packets sent, count"
scalar scenarioPRJP1.node[39].udp 	sentPk:sum(packetBytes) 	2607280
attr interpolationmode  none
attr source  sentPk
attr title  "packets sent, sum(packetBytes)"
scalar scenarioPRJP1.node[39].networkLayer.arp 	failedARPResolution:count 	54
attr title  "ARP failed resolutions, count"
scalar scenarioPRJP1.node[39].networkLayer.arp 	completedARPResolution:count 	5053
attr title  "ARP completed resolutions, count"
scalar scenarioPRJP1.node[39].networkLayer.arp 	initiatedARPResolution:count 	123
attr title  "ARP initiated resolutions, count"
scalar scenarioPRJP1.node[39].networkLayer.arp 	sentReply:count 	166
attr title  "ARP replies sent, count"
scalar scenarioPRJP1.node[39].networkLayer.arp 	sentReq:count 	279
attr title  "ARP request sent, count"
scalar scenarioPRJP1.node[39].mobility 	startTime 	2.5
scalar scenarioPRJP1.node[39].mobility 	totalTime 	1897.5
scalar scenarioPRJP1.node[39].mobility 	stopTime 	1900
scalar scenarioPRJP1.node[39].mobility 	minSpeed 	2.4755905089854e-13
scalar scenarioPRJP1.node[39].mobility 	maxSpeed 	17.398632815274
scalar scenarioPRJP1.node[39].mobility 	totalDistance 	17580.834002063
scalar scenarioPRJP1.node[39].mobility 	totalCO2Emission 	4711.008231576
scalar scenarioPRJP1.node[39].wlan[0].mgmt 	dataQueueLen:max 	89
attr interpolationmode  sample-hold
attr title  "data queue length, max"
scalar scenarioPRJP1.node[39].wlan[0].mgmt 	dataQueueLen:timeavg 	1.4989416077977
attr interpolationmode  sample-hold
attr title  "data queue length, timeavg"
scalar scenarioPRJP1.node[39].wlan[0].mgmt 	dropPkByQueue:count 	0
attr interpolationmode  none
attr source  dropPkByQueue
attr title  "packets dropped by queue, count"
scalar scenarioPRJP1.node[39].wlan[0].mgmt 	dropPkByQueue:sum(packetBytes) 	0
attr interpolationmode  none
attr source  dropPkByQueue
attr title  "packets dropped by queue, sum(packetBytes)"
scalar scenarioPRJP1.node[39].wlan[0].mac 	"number of received packets" 	15013
scalar scenarioPRJP1.node[39].wlan[0].mac 	"number of collisions" 	1291451
scalar scenarioPRJP1.node[39].wlan[0].mac 	"number of internal collisions" 	1
scalar scenarioPRJP1.node[39].wlan[0].mac 	"number of retry for AC 0" 	37033
scalar scenarioPRJP1.node[39].wlan[0].mac 	"number of retry for AC 1" 	0
scalar scenarioPRJP1.node[39].wlan[0].mac 	"number of retry for AC 2" 	0
scalar scenarioPRJP1.node[39].wlan[0].mac 	"number of retry for AC 3" 	0
scalar scenarioPRJP1.node[39].wlan[0].mac 	"sent and received bits" 	51502592
scalar scenarioPRJP1.node[39].wlan[0].mac 	"sent packet within AC 0" 	13797
scalar scenarioPRJP1.node[39].wlan[0].mac 	"sent packet within AC 1" 	7
scalar scenarioPRJP1.node[39].wlan[0].mac 	"sent packet within AC 2" 	0
scalar scenarioPRJP1.node[39].wlan[0].mac 	"sent packet within AC 3" 	0
scalar scenarioPRJP1.node[39].wlan[0].mac 	"sent in TXOP " 	0
scalar scenarioPRJP1.node[39].wlan[0].mac 	"sentWithoutRetry AC 0" 	6091
scalar scenarioPRJP1.node[39].wlan[0].mac 	"sentWithoutRetry AC 1" 	7
scalar scenarioPRJP1.node[39].wlan[0].mac 	"sentWithoutRetry AC 2" 	0
scalar scenarioPRJP1.node[39].wlan[0].mac 	"sentWithoutRetry AC 3" 	0
scalar scenarioPRJP1.node[39].wlan[0].mac 	"numGivenUp AC 0" 	2933
scalar scenarioPRJP1.node[39].wlan[0].mac 	"numGivenUp AC 1" 	0
scalar scenarioPRJP1.node[39].wlan[0].mac 	"numGivenUp AC 2" 	0
scalar scenarioPRJP1.node[39].wlan[0].mac 	"numGivenUp AC 3" 	0
scalar scenarioPRJP1.node[39].wlan[0].mac 	"numDropped AC 0" 	4766
scalar scenarioPRJP1.node[39].wlan[0].mac 	"numDropped AC 1" 	1
scalar scenarioPRJP1.node[39].wlan[0].mac 	"numDropped AC 2" 	0
scalar scenarioPRJP1.node[39].wlan[0].mac 	"numDropped AC 3" 	0
scalar scenarioPRJP1.node[39].wlan[0].mac 	rcvdPkFromLL:count 	3155437
attr interpolationmode  none
attr source  packetReceivedFromLower
attr title  "packets received from lower layer, count"
scalar scenarioPRJP1.node[39].wlan[0].mac 	rcvdPkFromLL:sum(packetBytes) 	554260086
attr interpolationmode  none
attr source  packetReceivedFromLower
attr title  "packets received from lower layer, sum(packetBytes)"
scalar scenarioPRJP1.node[39].wlan[0].mac 	sentDownPk:count 	105007
attr interpolationmode  none
attr source  packetSentToLower
attr title  "packets sent to lower layer, count"
scalar scenarioPRJP1.node[39].wlan[0].mac 	sentDownPk:sum(packetBytes) 	20442994
attr interpolationmode  none
attr source  packetSentToLower
attr title  "packets sent to lower layer, sum(packetBytes)"
scalar scenarioPRJP1.node[39].wlan[0].mac 	rcvdPkFromHL:count 	57729
attr interpolationmode  none
attr source  packetReceivedFromUpper
attr title  "packets received from higher layer, count"
scalar scenarioPRJP1.node[39].wlan[0].mac 	rcvdPkFromHL:sum(packetBytes) 	8239112
attr interpolationmode  none
attr source  packetReceivedFromUpper
attr title  "packets received from higher layer, sum(packetBytes)"
scalar scenarioPRJP1.node[39].wlan[0].mac 	passedUpPk:count 	614113
attr interpolationmode  none
attr source  packetSentToUpper
attr title  "packets passed to higher layer, count"
scalar scenarioPRJP1.node[39].wlan[0].mac 	passedUpPk:sum(packetBytes) 	55661708
attr interpolationmode  none
attr source  packetSentToUpper
attr title  "packets passed to higher layer, sum(packetBytes)"
statistic scenarioPRJP1.node[39].wlan[0].radio 	radioChannel:histogram
field count 1
field mean 3
field stddev -nan
field sum 3
field sqrsum 9
field min 3
field max 3
attr interpolationmode  sample-hold
attr source  radioChannelChanged
attr title  "Radio channel, histogram"
bin	-INF	0
bin	2	0
bin	3	1
bin	4	0
scalar scenarioPRJP1.node[39].wlan[0].radio 	transmissionState:count 	420028
attr interpolationmode  sample-hold
attr source  transmissionStateChanged
attr title  "Radio transmission state, count"
scalar scenarioPRJP1.node[39].wlan[0].radio 	receptionState:count 	7361870
attr interpolationmode  sample-hold
attr source  receptionStateChanged
attr title  "Radio reception state, count"
scalar scenarioPRJP1.node[39].wlan[0].radio 	radioMode:count 	210016
attr interpolationmode  sample-hold
attr source  radioModeChanged
attr title  "Radio mode, count"
statistic scenarioPRJP1.node[39].wlan[0].radio 	symbolErrorRate:histogram
field count 0
field mean -nan
field stddev -nan
field sum 0
field sqrsum 0
field min -nan
field max -nan
attr source  symbolErrorRate
attr title  "Symbol error rate, histogram"
bin	-INF	0
bin	-0.5	0
bin	-0.46666666666667	0
bin	-0.43333333333333	0
bin	-0.4	0
bin	-0.36666666666667	0
bin	-0.33333333333333	0
bin	-0.3	0
bin	-0.26666666666667	0
bin	-0.23333333333333	0
bin	-0.2	0
bin	-0.16666666666667	0
bin	-0.13333333333333	0
bin	-0.1	0
bin	-0.066666666666667	0
bin	-0.033333333333333	0
bin	-6.9388939039072e-18	0
bin	0.033333333333333	0
bin	0.066666666666667	0
bin	0.1	0
bin	0.13333333333333	0
bin	0.16666666666667	0
bin	0.2	0
bin	0.23333333333333	0
bin	0.26666666666667	0
bin	0.3	0
bin	0.33333333333333	0
bin	0.36666666666667	0
bin	0.4	0
bin	0.43333333333333	0
bin	0.46666666666667	0
bin	0.5	0
statistic scenarioPRJP1.node[39].wlan[0].radio 	bitErrorRate:histogram
field count 0
field mean -nan
field stddev -nan
field sum 0
field sqrsum 0
field min -nan
field max -nan
attr source  bitErrorRate
attr title  "Bit error rate, histogram"
bin	-INF	0
bin	-0.5	0
bin	-0.46666666666667	0
bin	-0.43333333333333	0
bin	-0.4	0
bin	-0.36666666666667	0
bin	-0.33333333333333	0
bin	-0.3	0
bin	-0.26666666666667	0
bin	-0.23333333333333	0
bin	-0.2	0
bin	-0.16666666666667	0
bin	-0.13333333333333	0
bin	-0.1	0
bin	-0.066666666666667	0
bin	-0.033333333333333	0
bin	-6.9388939039072e-18	0
bin	0.033333333333333	0
bin	0.066666666666667	0
bin	0.1	0
bin	0.13333333333333	0
bin	0.16666666666667	0
bin	0.2	0
bin	0.23333333333333	0
bin	0.26666666666667	0
bin	0.3	0
bin	0.33333333333333	0
bin	0.36666666666667	0
bin	0.4	0
bin	0.43333333333333	0
bin	0.46666666666667	0
bin	0.5	0
statistic scenarioPRJP1.node[39].wlan[0].radio 	packetErrorRate:histogram
field count 3155437
field mean 0.38868665029186
field stddev 0.4815082311183
field sum 1226476.237737
field sqrsum 1208303.334468
field min 0
field max 1
attr source  packetErrorRate
attr title  "Packet error rate, histogram"
bin	-INF	0
bin	-0.5	0
bin	-0.43333333333333	0
bin	-0.36666666666667	0
bin	-0.3	0
bin	-0.23333333333333	0
bin	-0.16666666666667	0
bin	-0.1	0
bin	-0.033333333333333	1855259
bin	0.033333333333333	29433
bin	0.1	14472
bin	0.16666666666667	9930
bin	0.23333333333333	7911
bin	0.3	6523
bin	0.36666666666667	5667
bin	0.43333333333333	5263
bin	0.5	5017
bin	0.56666666666667	4789
bin	0.63333333333333	4851
bin	0.7	4922
bin	0.76666666666667	5424
bin	0.83333333333333	6627
bin	0.9	9943
bin	0.96666666666667	1179406
bin	1.0333333333333	0
bin	1.1	0
bin	1.1666666666667	0
bin	1.2333333333333	0
bin	1.3	0
bin	1.3666666666667	0
bin	1.4333333333333	0
bin	1.5	0
statistic scenarioPRJP1.node[39].wlan[0].radio 	minSNIR:histogram
field count 3155437
field mean 33837.62639612
field stddev 805080.82476069
field sum 106772498322.49
field sqrsum 2.0488249725699e+18
field min 1.548522943876e-06
field max 345386172.99497
attr source  minSNIR
attr title  "Min SNIR, histogram"
bin	-INF	0
bin	-4666.8965316027	0
bin	-4044.6397782284	0
bin	-3422.383024854	0
bin	-2800.1262714797	0
bin	-2177.8695181053	0
bin	-1555.612764731	0
bin	-933.35601135665	0
bin	-311.0992579823	1884139
bin	311.15749539205	412037
bin	933.4142487664	239196
bin	1555.6710021407	143464
bin	2177.9277555151	93939
bin	2800.1845088894	66470
bin	3422.4412622638	48439
bin	4044.6980156381	36493
bin	4666.9547690125	28264
bin	5289.2115223868	22241
bin	5911.4682757612	17933
bin	6533.7250291355	14822
bin	7155.9817825099	11913
bin	7778.2385358842	10192
bin	8400.4952892586	8357
bin	9022.7520426329	7154
bin	9645.0087960073	5995
bin	10267.265549382	5252
bin	10889.522302756	4533
bin	11511.77905613	3953
bin	12134.035809505	3537
bin	12756.292562879	3172
bin	13378.549316253	2839
bin	14000.806069628	81103
scalar scenarioPRJP1.node[39].lo0.lo 	droppedPkBitError:count 	0
attr interpolationmode  none
attr source  dropPkBitError
attr title  "packets dropped/bit error, count"
scalar scenarioPRJP1.node[39].lo0.lo 	droppedPkBitError:sum(packetBytes) 	0
attr interpolationmode  none
attr source  dropPkBitError
attr title  "packets dropped/bit error, sum(packetBytes)"
scalar scenarioPRJP1.node[39].lo0.lo 	rcvdPkFromHL:count 	0
attr interpolationmode  none
attr source  packetReceivedFromUpper
attr title  "packets received from higher layer, count"
scalar scenarioPRJP1.node[39].lo0.lo 	rcvdPkFromHL:sum(packetBytes) 	0
attr interpolationmode  none
attr source  packetReceivedFromUpper
attr title  "packets received from higher layer, sum(packetBytes)"
scalar scenarioPRJP1.node[39].lo0.lo 	passedUpPk:count 	0
attr interpolationmode  none
attr source  packetSentToUpper
attr title  "packets passed to higher layer, count"
scalar scenarioPRJP1.node[39].lo0.lo 	passedUpPk:sum(packetBytes) 	0
attr interpolationmode  none
attr source  packetSentToUpper
attr title  "packets passed to higher layer, sum(packetBytes)"
