version 2
run DYMOUM-TRG-100n-22-20150804-11:31:50-9501
attr configname DYMOUM-TRG-100n
attr datetime 20150804-11:31:50
attr experiment DYMOUM-TRG-100n
attr inifile omnetpp.ini
attr iterationvars ""
attr iterationvars2 $repetition=22
attr measurement ""
attr network Prj_Part1_propag.scenarioPRJP1
attr processid 9501
attr repetition 22
attr replication #22
attr resultdir results
attr runnumber 22
attr seedset 22

scalar scenarioPRJP1.node[55].app 	"Total sent" 	372
scalar scenarioPRJP1.node[55].app 	"Total received" 	66
scalar scenarioPRJP1.node[55].app 	"Total deleted" 	6
scalar scenarioPRJP1.node[55].app 	dropPk:count 	6
attr interpolationmode  none
attr source  dropPk
attr title  "packets dropped, count"
scalar scenarioPRJP1.node[55].app 	dropPk:sum(packetBytes) 	3072
attr interpolationmode  none
attr source  dropPk
attr title  "packets dropped, sum(packetBytes)"
scalar scenarioPRJP1.node[55].app 	outOfOrderPk:count 	0
attr interpolationmode  none
attr source  outOfOrderPk
attr title  "packets received out of order, count"
scalar scenarioPRJP1.node[55].app 	outOfOrderPk:sum(packetBytes) 	0
attr interpolationmode  none
attr source  outOfOrderPk
attr title  "packets received out of order, sum(packetBytes)"
scalar scenarioPRJP1.node[55].app 	rcvdPk:count 	66
attr interpolationmode  none
attr source  rcvdPk
attr title  "packets received, count"
scalar scenarioPRJP1.node[55].app 	rcvdPk:sum(packetBytes) 	33792
attr interpolationmode  none
attr source  rcvdPk
attr title  "packets received, sum(packetBytes)"
statistic scenarioPRJP1.node[55].app 	endToEndDelay:histogram
field count 66
field mean 5.5920635157548
field stddev 5.7170359315097
field sum 369.07619203982
field sqrsum 4188.3899977808
field min 0.000958646125
field max 19.425566664001
attr interpolationmode  none
attr source  messageAge(rcvdPk)
attr title  "delay, histogram"
attr unit  s
bin	-INF	0
bin	-9.711345362813	0
bin	-8.4163714949546	0
bin	-7.1213976270962	0
bin	-5.8264237592378	0
bin	-4.5314498913794	0
bin	-3.236476023521	0
bin	-1.9415021556626	0
bin	-0.6465282878042	20
bin	0.6484455800542	7
bin	1.9434194479126	5
bin	3.238393315771	4
bin	4.5333671836294	2
bin	5.8283410514878	2
bin	7.1233149193462	5
bin	8.4182887872046	3
bin	9.713262655063	5
bin	11.008236522921	4
bin	12.30321039078	1
bin	13.598184258638	1
bin	14.893158126497	4
bin	16.188131994355	0
bin	17.483105862213	1
bin	18.778079730072	2
bin	20.07305359793	0
bin	21.368027465789	0
bin	22.663001333647	0
bin	23.957975201505	0
bin	25.252949069364	0
bin	26.547922937222	0
bin	27.842896805081	0
bin	29.137870672939	0
scalar scenarioPRJP1.node[55].app 	sentPk:count 	372
attr interpolationmode  none
attr source  sentPk
attr title  "packets sent, count"
scalar scenarioPRJP1.node[55].app 	sentPk:sum(packetBytes) 	190464
attr interpolationmode  none
attr source  sentPk
attr title  "packets sent, sum(packetBytes)"
scalar scenarioPRJP1.node[55].udp 	droppedPkBadChecksum:count 	0
attr interpolationmode  none
attr title  "packets dropped (checksum error), count"
scalar scenarioPRJP1.node[55].udp 	droppedPkWrongPort:count 	0
attr interpolationmode  none
attr title  "packets dropped (wrong port), count"
scalar scenarioPRJP1.node[55].udp 	passedUpPk:count 	72
attr interpolationmode  none
attr title  "packets passed up, count"
scalar scenarioPRJP1.node[55].udp 	rcvdPk:count 	72
attr interpolationmode  none
attr source  rcvdPk
attr title  "packets received, count"
scalar scenarioPRJP1.node[55].udp 	rcvdPk:sum(packetBytes) 	37440
attr interpolationmode  none
attr source  rcvdPk
attr title  "packets received, sum(packetBytes)"
scalar scenarioPRJP1.node[55].udp 	sentPk:count 	372
attr interpolationmode  none
attr source  sentPk
attr title  "packets sent, count"
scalar scenarioPRJP1.node[55].udp 	sentPk:sum(packetBytes) 	193440
attr interpolationmode  none
attr source  sentPk
attr title  "packets sent, sum(packetBytes)"
scalar scenarioPRJP1.node[55].networkLayer.arp 	failedARPResolution:count 	0
attr title  "ARP failed resolutions, count"
scalar scenarioPRJP1.node[55].networkLayer.arp 	completedARPResolution:count 	105
attr title  "ARP completed resolutions, count"
scalar scenarioPRJP1.node[55].networkLayer.arp 	initiatedARPResolution:count 	13
attr title  "ARP initiated resolutions, count"
scalar scenarioPRJP1.node[55].networkLayer.arp 	sentReply:count 	7
attr title  "ARP replies sent, count"
scalar scenarioPRJP1.node[55].networkLayer.arp 	sentReq:count 	24
attr title  "ARP request sent, count"
scalar scenarioPRJP1.node[55].manetrouting 	"simulated time" 	158.5
scalar scenarioPRJP1.node[55].manetrouting 	"Dymo totalSend " 	505606
scalar scenarioPRJP1.node[55].manetrouting 	"Dymo Rreq send" 	285193
scalar scenarioPRJP1.node[55].manetrouting 	"Dymo Rreq rec" 	223665
scalar scenarioPRJP1.node[55].manetrouting 	"Dymo Rrep send" 	546
scalar scenarioPRJP1.node[55].manetrouting 	"Dymo Rrep rec" 	335
scalar scenarioPRJP1.node[55].manetrouting 	"Dymo Rerr send" 	1559
scalar scenarioPRJP1.node[55].manetrouting 	"Dymo Rerr rec" 	5807
scalar scenarioPRJP1.node[55].mobility 	startTime 	4.9
scalar scenarioPRJP1.node[55].mobility 	totalTime 	153.5
scalar scenarioPRJP1.node[55].mobility 	stopTime 	158.5
scalar scenarioPRJP1.node[55].mobility 	minSpeed 	2.4757915182901e-13
scalar scenarioPRJP1.node[55].mobility 	maxSpeed 	19.300752360327
scalar scenarioPRJP1.node[55].mobility 	totalDistance 	1448.6570849221
scalar scenarioPRJP1.node[55].mobility 	totalCO2Emission 	431.11933031395
scalar scenarioPRJP1.node[55].wlan.mgmt 	dataQueueLen:max 	8
attr interpolationmode  sample-hold
attr title  "data queue length, max"
scalar scenarioPRJP1.node[55].wlan.mgmt 	dataQueueLen:timeavg 	0
attr interpolationmode  sample-hold
attr title  "data queue length, timeavg"
scalar scenarioPRJP1.node[55].wlan.mgmt 	dropPkByQueue:count 	0
attr interpolationmode  none
attr source  dropPkByQueue
attr title  "packets dropped by queue, count"
scalar scenarioPRJP1.node[55].wlan.mgmt 	dropPkByQueue:sum(packetBytes) 	0
attr interpolationmode  none
attr source  dropPkByQueue
attr title  "packets dropped by queue, sum(packetBytes)"
scalar scenarioPRJP1.node[55].wlan.mac 	"number of received packets" 	729
scalar scenarioPRJP1.node[55].wlan.mac 	"number of collisions" 	5908
scalar scenarioPRJP1.node[55].wlan.mac 	"number of internal collisions" 	0
scalar scenarioPRJP1.node[55].wlan.mac 	"number of retry for AC 0" 	1770
scalar scenarioPRJP1.node[55].wlan.mac 	"number of retry for AC 1" 	0
scalar scenarioPRJP1.node[55].wlan.mac 	"number of retry for AC 2" 	0
scalar scenarioPRJP1.node[55].wlan.mac 	"number of retry for AC 3" 	0
scalar scenarioPRJP1.node[55].wlan.mac 	"sent and received bits" 	2710048
scalar scenarioPRJP1.node[55].wlan.mac 	"sent packet within AC 0" 	83
scalar scenarioPRJP1.node[55].wlan.mac 	"sent packet within AC 1" 	0
scalar scenarioPRJP1.node[55].wlan.mac 	"sent packet within AC 2" 	0
scalar scenarioPRJP1.node[55].wlan.mac 	"sent packet within AC 3" 	0
scalar scenarioPRJP1.node[55].wlan.mac 	"sent in TXOP " 	0
scalar scenarioPRJP1.node[55].wlan.mac 	"sentWithoutRetry AC 0" 	62
scalar scenarioPRJP1.node[55].wlan.mac 	"sentWithoutRetry AC 1" 	0
scalar scenarioPRJP1.node[55].wlan.mac 	"sentWithoutRetry AC 2" 	0
scalar scenarioPRJP1.node[55].wlan.mac 	"sentWithoutRetry AC 3" 	0
scalar scenarioPRJP1.node[55].wlan.mac 	"numGivenUp AC 0" 	285
scalar scenarioPRJP1.node[55].wlan.mac 	"numGivenUp AC 1" 	0
scalar scenarioPRJP1.node[55].wlan.mac 	"numGivenUp AC 2" 	0
scalar scenarioPRJP1.node[55].wlan.mac 	"numGivenUp AC 3" 	0
scalar scenarioPRJP1.node[55].wlan.mac 	"numDropped AC 0" 	0
scalar scenarioPRJP1.node[55].wlan.mac 	"numDropped AC 1" 	0
scalar scenarioPRJP1.node[55].wlan.mac 	"numDropped AC 2" 	0
scalar scenarioPRJP1.node[55].wlan.mac 	"numDropped AC 3" 	0
scalar scenarioPRJP1.node[55].wlan.mac 	rcvdPkFromLL:count 	26069
attr interpolationmode  none
attr source  packetReceivedFromLower
attr title  "packets received from lower layer, count"
scalar scenarioPRJP1.node[55].wlan.mac 	rcvdPkFromLL:sum(packetBytes) 	7683226
attr interpolationmode  none
attr source  packetReceivedFromLower
attr title  "packets received from lower layer, sum(packetBytes)"
scalar scenarioPRJP1.node[55].wlan.mac 	sentDownPk:count 	4928
attr interpolationmode  none
attr source  packetSentToLower
attr title  "packets sent to lower layer, count"
scalar scenarioPRJP1.node[55].wlan.mac 	sentDownPk:sum(packetBytes) 	1508527
attr interpolationmode  none
attr source  packetSentToLower
attr title  "packets sent to lower layer, sum(packetBytes)"
scalar scenarioPRJP1.node[55].wlan.mac 	rcvdPkFromHL:count 	2429
attr interpolationmode  none
attr source  packetReceivedFromUpper
attr title  "packets received from higher layer, count"
scalar scenarioPRJP1.node[55].wlan.mac 	rcvdPkFromHL:sum(packetBytes) 	499471
attr interpolationmode  none
attr source  packetReceivedFromUpper
attr title  "packets received from higher layer, sum(packetBytes)"
scalar scenarioPRJP1.node[55].wlan.mac 	passedUpPk:count 	8633
attr interpolationmode  none
attr source  packetSentToUpper
attr title  "packets passed to higher layer, count"
scalar scenarioPRJP1.node[55].wlan.mac 	passedUpPk:sum(packetBytes) 	1341228
attr interpolationmode  none
attr source  packetSentToUpper
attr title  "packets passed to higher layer, sum(packetBytes)"
statistic scenarioPRJP1.node[55].wlan.radio 	radioChannel:histogram
field count 1
field mean 3
field stddev nan
field sum 3
field sqrsum 9
field min 3
field max 3
attr interpolationmode  sample-hold
attr source  radioChannelChanged
attr title  "Radio channel, histogram"
bin	-INF	0
bin	2	0
bin	3	1
bin	4	0
scalar scenarioPRJP1.node[55].wlan.radio 	transmissionState:count 	19712
attr interpolationmode  sample-hold
attr source  transmissionStateChanged
attr title  "Radio transmission state, count"
scalar scenarioPRJP1.node[55].wlan.radio 	receptionState:count 	63224
attr interpolationmode  sample-hold
attr source  receptionStateChanged
attr title  "Radio reception state, count"
scalar scenarioPRJP1.node[55].wlan.radio 	radioMode:count 	9858
attr interpolationmode  sample-hold
attr source  radioModeChanged
attr title  "Radio mode, count"
statistic scenarioPRJP1.node[55].wlan.radio 	symbolErrorRate:histogram
field count 0
field mean nan
field stddev nan
field sum 0
field sqrsum 0
field min nan
field max nan
attr source  symbolErrorRate
attr title  "Symbol error rate, histogram"
bin	-INF	0
bin	-0.5	0
bin	-0.46666666666667	0
bin	-0.43333333333333	0
bin	-0.4	0
bin	-0.36666666666667	0
bin	-0.33333333333333	0
bin	-0.3	0
bin	-0.26666666666667	0
bin	-0.23333333333333	0
bin	-0.2	0
bin	-0.16666666666667	0
bin	-0.13333333333333	0
bin	-0.1	0
bin	-0.066666666666667	0
bin	-0.033333333333333	0
bin	0	0
bin	0.033333333333333	0
bin	0.066666666666667	0
bin	0.1	0
bin	0.13333333333333	0
bin	0.16666666666667	0
bin	0.2	0
bin	0.23333333333333	0
bin	0.26666666666667	0
bin	0.3	0
bin	0.33333333333333	0
bin	0.36666666666667	0
bin	0.4	0
bin	0.43333333333333	0
bin	0.46666666666667	0
bin	0.5	0
statistic scenarioPRJP1.node[55].wlan.radio 	bitErrorRate:histogram
field count 0
field mean nan
field stddev nan
field sum 0
field sqrsum 0
field min nan
field max nan
attr source  bitErrorRate
attr title  "Bit error rate, histogram"
bin	-INF	0
bin	-0.5	0
bin	-0.46666666666667	0
bin	-0.43333333333333	0
bin	-0.4	0
bin	-0.36666666666667	0
bin	-0.33333333333333	0
bin	-0.3	0
bin	-0.26666666666667	0
bin	-0.23333333333333	0
bin	-0.2	0
bin	-0.16666666666667	0
bin	-0.13333333333333	0
bin	-0.1	0
bin	-0.066666666666667	0
bin	-0.033333333333333	0
bin	0	0
bin	0.033333333333333	0
bin	0.066666666666667	0
bin	0.1	0
bin	0.13333333333333	0
bin	0.16666666666667	0
bin	0.2	0
bin	0.23333333333333	0
bin	0.26666666666667	0
bin	0.3	0
bin	0.33333333333333	0
bin	0.36666666666667	0
bin	0.4	0
bin	0.43333333333333	0
bin	0.46666666666667	0
bin	0.5	0
statistic scenarioPRJP1.node[55].wlan.radio 	packetErrorRate:histogram
field count 26069
field mean 0.20537512339351
field stddev 0.3936919658219
field sum 5353.9240917454
field sqrsum 5139.929832501
field min 0
field max 1
attr source  packetErrorRate
attr title  "Packet error rate, histogram"
bin	-INF	0
bin	-0.5	0
bin	-0.43333333333333	0
bin	-0.36666666666667	0
bin	-0.3	0
bin	-0.23333333333333	0
bin	-0.16666666666667	0
bin	-0.1	0
bin	-0.033333333333333	19861
bin	0.033333333333333	333
bin	0.1	164
bin	0.16666666666667	122
bin	0.23333333333333	95
bin	0.3	80
bin	0.36666666666667	60
bin	0.43333333333333	70
bin	0.5	56
bin	0.56666666666667	55
bin	0.63333333333333	51
bin	0.7	66
bin	0.76666666666667	48
bin	0.83333333333333	88
bin	0.9	139
bin	0.96666666666667	4781
bin	1.0333333333333	0
bin	1.1	0
bin	1.1666666666667	0
bin	1.2333333333333	0
bin	1.3	0
bin	1.3666666666667	0
bin	1.4333333333333	0
bin	1.5	0
statistic scenarioPRJP1.node[55].wlan.radio 	minSNIR:histogram
field count 26069
field mean 1849.5976133196
field stddev 16238.958080216
field sum 48217160.181629
field sqrsum 6963411947847.6
field min 0.0013486251090172
field max 552716.22695191
attr source  minSNIR
attr title  "Min SNIR, histogram"
bin	-INF	0
bin	-87028.567216399	0
bin	-75424.727414392	0
bin	-63820.887612385	0
bin	-52217.047810378	0
bin	-40613.208008371	0
bin	-29009.368206364	0
bin	-17405.528404358	0
bin	-5801.6886023506	25130
bin	5802.1511996563	509
bin	17405.991001663	154
bin	29009.83080367	36
bin	40613.670605677	55
bin	52217.510407684	21
bin	63821.350209691	16
bin	75425.190011698	2
bin	87029.029813705	12
bin	98632.869615712	1
bin	110236.70941772	0
bin	121840.54921973	0
bin	133444.38902173	64
bin	145048.22882374	2
bin	156652.06862575	4
bin	168255.90842775	45
bin	179859.74822976	7
bin	191463.58803177	0
bin	203067.42783377	0
bin	214671.26763578	0
bin	226275.10743779	0
bin	237878.94723979	0
bin	249482.7870418	0
bin	261086.62684381	11
scalar scenarioPRJP1.node[55].lo0.lo 	droppedPkBitError:count 	0
attr interpolationmode  none
attr source  dropPkBitError
attr title  "packets dropped/bit error, count"
scalar scenarioPRJP1.node[55].lo0.lo 	droppedPkBitError:sum(packetBytes) 	0
attr interpolationmode  none
attr source  dropPkBitError
attr title  "packets dropped/bit error, sum(packetBytes)"
scalar scenarioPRJP1.node[55].lo0.lo 	rcvdPkFromHL:count 	0
attr interpolationmode  none
attr source  packetReceivedFromUpper
attr title  "packets received from higher layer, count"
scalar scenarioPRJP1.node[55].lo0.lo 	rcvdPkFromHL:sum(packetBytes) 	0
attr interpolationmode  none
attr source  packetReceivedFromUpper
attr title  "packets received from higher layer, sum(packetBytes)"
scalar scenarioPRJP1.node[55].lo0.lo 	passedUpPk:count 	0
attr interpolationmode  none
attr source  packetSentToUpper
attr title  "packets passed to higher layer, count"
scalar scenarioPRJP1.node[55].lo0.lo 	passedUpPk:sum(packetBytes) 	0
attr interpolationmode  none
attr source  packetSentToUpper
attr title  "packets passed to higher layer, sum(packetBytes)"
scalar scenarioPRJP1.node[75].app 	"Total sent" 	373
scalar scenarioPRJP1.node[75].app 	"Total received" 	55
scalar scenarioPRJP1.node[75].app 	"Total deleted" 	6
scalar scenarioPRJP1.node[75].app 	dropPk:count 	6
attr interpolationmode  none
attr source  dropPk
attr title  "packets dropped, count"
scalar scenarioPRJP1.node[75].app 	dropPk:sum(packetBytes) 	3072
attr interpolationmode  none
attr source  dropPk
attr title  "packets dropped, sum(packetBytes)"
scalar scenarioPRJP1.node[75].app 	outOfOrderPk:count 	0
attr interpolationmode  none
attr source  outOfOrderPk
attr title  "packets received out of order, count"
scalar scenarioPRJP1.node[75].app 	outOfOrderPk:sum(packetBytes) 	0
attr interpolationmode  none
attr source  outOfOrderPk
attr title  "packets received out of order, sum(packetBytes)"
scalar scenarioPRJP1.node[75].app 	rcvdPk:count 	55
attr interpolationmode  none
attr source  rcvdPk
attr title  "packets received, count"
scalar scenarioPRJP1.node[75].app 	rcvdPk:sum(packetBytes) 	28160
attr interpolationmode  none
attr source  rcvdPk
attr title  "packets received, sum(packetBytes)"
statistic scenarioPRJP1.node[75].app 	endToEndDelay:histogram
field count 55
field mean 3.4892950323718
field stddev 4.8410074753645
field sum 191.91122678045
field sqrsum 1935.1439725943
field min 0.001023231375
field max 17.398903755659
attr interpolationmode  none
attr source  messageAge(rcvdPk)
attr title  "delay, histogram"
attr unit  s
bin	-INF	0
bin	-8.697917030767	0
bin	-7.5380583291481	0
bin	-6.3781996275291	0
bin	-5.2183409259102	0
bin	-4.0584822242913	0
bin	-2.8986235226723	0
bin	-1.7387648210534	0
bin	-0.57890611943447	25
bin	0.58095258218447	7
bin	1.7408112838034	4
bin	2.9006699854223	2
bin	4.0605286870413	1
bin	5.2203873886602	2
bin	6.3802460902791	3
bin	7.5401047918981	3
bin	8.699963493517	2
bin	9.8598221951359	0
bin	11.019680896755	2
bin	12.179539598374	0
bin	13.339398299993	0
bin	14.499257001612	2
bin	15.659115703231	1
bin	16.81897440485	1
bin	17.978833106468	0
bin	19.138691808087	0
bin	20.298550509706	0
bin	21.458409211325	0
bin	22.618267912944	0
bin	23.778126614563	0
bin	24.937985316182	0
bin	26.097844017801	0
scalar scenarioPRJP1.node[75].app 	sentPk:count 	373
attr interpolationmode  none
attr source  sentPk
attr title  "packets sent, count"
scalar scenarioPRJP1.node[75].app 	sentPk:sum(packetBytes) 	190976
attr interpolationmode  none
attr source  sentPk
attr title  "packets sent, sum(packetBytes)"
scalar scenarioPRJP1.node[75].udp 	droppedPkBadChecksum:count 	0
attr interpolationmode  none
attr title  "packets dropped (checksum error), count"
scalar scenarioPRJP1.node[75].udp 	droppedPkWrongPort:count 	0
attr interpolationmode  none
attr title  "packets dropped (wrong port), count"
scalar scenarioPRJP1.node[75].udp 	passedUpPk:count 	61
attr interpolationmode  none
attr title  "packets passed up, count"
scalar scenarioPRJP1.node[75].udp 	rcvdPk:count 	61
attr interpolationmode  none
attr source  rcvdPk
attr title  "packets received, count"
scalar scenarioPRJP1.node[75].udp 	rcvdPk:sum(packetBytes) 	31720
attr interpolationmode  none
attr source  rcvdPk
attr title  "packets received, sum(packetBytes)"
scalar scenarioPRJP1.node[75].udp 	sentPk:count 	373
attr interpolationmode  none
attr source  sentPk
attr title  "packets sent, count"
scalar scenarioPRJP1.node[75].udp 	sentPk:sum(packetBytes) 	193960
attr interpolationmode  none
attr source  sentPk
attr title  "packets sent, sum(packetBytes)"
scalar scenarioPRJP1.node[75].networkLayer.arp 	failedARPResolution:count 	1
attr title  "ARP failed resolutions, count"
scalar scenarioPRJP1.node[75].networkLayer.arp 	completedARPResolution:count 	146
attr title  "ARP completed resolutions, count"
scalar scenarioPRJP1.node[75].networkLayer.arp 	initiatedARPResolution:count 	16
attr title  "ARP initiated resolutions, count"
scalar scenarioPRJP1.node[75].networkLayer.arp 	sentReply:count 	11
attr title  "ARP replies sent, count"
scalar scenarioPRJP1.node[75].networkLayer.arp 	sentReq:count 	22
attr title  "ARP request sent, count"
scalar scenarioPRJP1.node[75].mobility 	startTime 	7.4
scalar scenarioPRJP1.node[75].mobility 	totalTime 	153
scalar scenarioPRJP1.node[75].mobility 	stopTime 	160.5
scalar scenarioPRJP1.node[75].mobility 	minSpeed 	2.4754835327845e-13
scalar scenarioPRJP1.node[75].mobility 	maxSpeed 	17.668099794131
scalar scenarioPRJP1.node[75].mobility 	totalDistance 	1484.9748931605
scalar scenarioPRJP1.node[75].mobility 	totalCO2Emission 	446.33482779133
scalar scenarioPRJP1.node[75].wlan.mgmt 	dataQueueLen:max 	29
attr interpolationmode  sample-hold
attr title  "data queue length, max"
scalar scenarioPRJP1.node[75].wlan.mgmt 	dataQueueLen:timeavg 	0
attr interpolationmode  sample-hold
attr title  "data queue length, timeavg"
scalar scenarioPRJP1.node[75].wlan.mgmt 	dropPkByQueue:count 	0
attr interpolationmode  none
attr source  dropPkByQueue
attr title  "packets dropped by queue, count"
scalar scenarioPRJP1.node[75].wlan.mgmt 	dropPkByQueue:sum(packetBytes) 	0
attr interpolationmode  none
attr source  dropPkByQueue
attr title  "packets dropped by queue, sum(packetBytes)"
scalar scenarioPRJP1.node[75].wlan.mac 	"number of received packets" 	544
scalar scenarioPRJP1.node[75].wlan.mac 	"number of collisions" 	5591
scalar scenarioPRJP1.node[75].wlan.mac 	"number of internal collisions" 	0
scalar scenarioPRJP1.node[75].wlan.mac 	"number of retry for AC 0" 	1444
scalar scenarioPRJP1.node[75].wlan.mac 	"number of retry for AC 1" 	0
scalar scenarioPRJP1.node[75].wlan.mac 	"number of retry for AC 2" 	0
scalar scenarioPRJP1.node[75].wlan.mac 	"number of retry for AC 3" 	0
scalar scenarioPRJP1.node[75].wlan.mac 	"sent and received bits" 	2967256
scalar scenarioPRJP1.node[75].wlan.mac 	"sent packet within AC 0" 	81
scalar scenarioPRJP1.node[75].wlan.mac 	"sent packet within AC 1" 	0
scalar scenarioPRJP1.node[75].wlan.mac 	"sent packet within AC 2" 	0
scalar scenarioPRJP1.node[75].wlan.mac 	"sent packet within AC 3" 	0
scalar scenarioPRJP1.node[75].wlan.mac 	"sent in TXOP " 	0
scalar scenarioPRJP1.node[75].wlan.mac 	"sentWithoutRetry AC 0" 	58
scalar scenarioPRJP1.node[75].wlan.mac 	"sentWithoutRetry AC 1" 	0
scalar scenarioPRJP1.node[75].wlan.mac 	"sentWithoutRetry AC 2" 	0
scalar scenarioPRJP1.node[75].wlan.mac 	"sentWithoutRetry AC 3" 	0
scalar scenarioPRJP1.node[75].wlan.mac 	"numGivenUp AC 0" 	231
scalar scenarioPRJP1.node[75].wlan.mac 	"numGivenUp AC 1" 	0
scalar scenarioPRJP1.node[75].wlan.mac 	"numGivenUp AC 2" 	0
scalar scenarioPRJP1.node[75].wlan.mac 	"numGivenUp AC 3" 	0
scalar scenarioPRJP1.node[75].wlan.mac 	"numDropped AC 0" 	0
scalar scenarioPRJP1.node[75].wlan.mac 	"numDropped AC 1" 	0
scalar scenarioPRJP1.node[75].wlan.mac 	"numDropped AC 2" 	0
scalar scenarioPRJP1.node[75].wlan.mac 	"numDropped AC 3" 	0
scalar scenarioPRJP1.node[75].wlan.mac 	rcvdPkFromLL:count 	25944
attr interpolationmode  none
attr source  packetReceivedFromLower
attr title  "packets received from lower layer, count"
scalar scenarioPRJP1.node[75].wlan.mac 	rcvdPkFromLL:sum(packetBytes) 	7719877
attr interpolationmode  none
attr source  packetReceivedFromLower
attr title  "packets received from lower layer, sum(packetBytes)"
scalar scenarioPRJP1.node[75].wlan.mac 	sentDownPk:count 	4460
attr interpolationmode  none
attr source  packetSentToLower
attr title  "packets sent to lower layer, count"
scalar scenarioPRJP1.node[75].wlan.mac 	sentDownPk:sum(packetBytes) 	1318416
attr interpolationmode  none
attr source  packetSentToLower
attr title  "packets sent to lower layer, sum(packetBytes)"
scalar scenarioPRJP1.node[75].wlan.mac 	rcvdPkFromHL:count 	2472
attr interpolationmode  none
attr source  packetReceivedFromUpper
attr title  "packets received from higher layer, count"
scalar scenarioPRJP1.node[75].wlan.mac 	rcvdPkFromHL:sum(packetBytes) 	500478
attr interpolationmode  none
attr source  packetReceivedFromUpper
attr title  "packets received from higher layer, sum(packetBytes)"
scalar scenarioPRJP1.node[75].wlan.mac 	passedUpPk:count 	8526
attr interpolationmode  none
attr source  packetSentToUpper
attr title  "packets passed to higher layer, count"
scalar scenarioPRJP1.node[75].wlan.mac 	passedUpPk:sum(packetBytes) 	1346265
attr interpolationmode  none
attr source  packetSentToUpper
attr title  "packets passed to higher layer, sum(packetBytes)"
statistic scenarioPRJP1.node[75].wlan.radio 	radioChannel:histogram
field count 1
field mean 3
field stddev nan
field sum 3
field sqrsum 9
field min 3
field max 3
attr interpolationmode  sample-hold
attr source  radioChannelChanged
attr title  "Radio channel, histogram"
bin	-INF	0
bin	2	0
bin	3	1
bin	4	0
scalar scenarioPRJP1.node[75].wlan.radio 	transmissionState:count 	17840
attr interpolationmode  sample-hold
attr source  transmissionStateChanged
attr title  "Radio transmission state, count"
scalar scenarioPRJP1.node[75].wlan.radio 	receptionState:count 	61877
attr interpolationmode  sample-hold
attr source  receptionStateChanged
attr title  "Radio reception state, count"
scalar scenarioPRJP1.node[75].wlan.radio 	radioMode:count 	8922
attr interpolationmode  sample-hold
attr source  radioModeChanged
attr title  "Radio mode, count"
statistic scenarioPRJP1.node[75].wlan.radio 	symbolErrorRate:histogram
field count 0
field mean nan
field stddev nan
field sum 0
field sqrsum 0
field min nan
field max nan
attr source  symbolErrorRate
attr title  "Symbol error rate, histogram"
bin	-INF	0
bin	-0.5	0
bin	-0.46666666666667	0
bin	-0.43333333333333	0
bin	-0.4	0
bin	-0.36666666666667	0
bin	-0.33333333333333	0
bin	-0.3	0
bin	-0.26666666666667	0
bin	-0.23333333333333	0
bin	-0.2	0
bin	-0.16666666666667	0
bin	-0.13333333333333	0
bin	-0.1	0
bin	-0.066666666666667	0
bin	-0.033333333333333	0
bin	0	0
bin	0.033333333333333	0
bin	0.066666666666667	0
bin	0.1	0
bin	0.13333333333333	0
bin	0.16666666666667	0
bin	0.2	0
bin	0.23333333333333	0
bin	0.26666666666667	0
bin	0.3	0
bin	0.33333333333333	0
bin	0.36666666666667	0
bin	0.4	0
bin	0.43333333333333	0
bin	0.46666666666667	0
bin	0.5	0
statistic scenarioPRJP1.node[75].wlan.radio 	bitErrorRate:histogram
field count 0
field mean nan
field stddev nan
field sum 0
field sqrsum 0
field min nan
field max nan
attr source  bitErrorRate
attr title  "Bit error rate, histogram"
bin	-INF	0
bin	-0.5	0
bin	-0.46666666666667	0
bin	-0.43333333333333	0
bin	-0.4	0
bin	-0.36666666666667	0
bin	-0.33333333333333	0
bin	-0.3	0
bin	-0.26666666666667	0
bin	-0.23333333333333	0
bin	-0.2	0
bin	-0.16666666666667	0
bin	-0.13333333333333	0
bin	-0.1	0
bin	-0.066666666666667	0
bin	-0.033333333333333	0
bin	0	0
bin	0.033333333333333	0
bin	0.066666666666667	0
bin	0.1	0
bin	0.13333333333333	0
bin	0.16666666666667	0
bin	0.2	0
bin	0.23333333333333	0
bin	0.26666666666667	0
bin	0.3	0
bin	0.33333333333333	0
bin	0.36666666666667	0
bin	0.4	0
bin	0.43333333333333	0
bin	0.46666666666667	0
bin	0.5	0
statistic scenarioPRJP1.node[75].wlan.radio 	packetErrorRate:histogram
field count 25944
field mean 0.19465966810481
field stddev 0.38545064391638
field sum 5050.2504293113
field sqrsum 4837.4886283633
field min 0
field max 1
attr source  packetErrorRate
attr title  "Packet error rate, histogram"
bin	-INF	0
bin	-1	0
bin	0	21975
bin	1	3969
bin	2	0
statistic scenarioPRJP1.node[75].wlan.radio 	minSNIR:histogram
field count 25944
field mean 3989.9016731517
field stddev 42700.959354692
field sum 103514009.00825
field sqrsum 47716748692824
field min 0.0017046789834815
field max 753239.71911939
attr source  minSNIR
attr title  "Min SNIR, histogram"
bin	-INF	0
bin	-7416.6221857608	0
bin	-6427.6057731285	0
bin	-5438.5893604961	0
bin	-4449.5729478638	0
bin	-3460.5565352314	0
bin	-2471.5401225991	0
bin	-1482.5237099668	0
bin	-493.50729733441	22906
bin	495.50911529793	1279
bin	1484.5255279303	342
bin	2473.5419405626	186
bin	3462.558353195	113
bin	4451.5747658273	94
bin	5440.5911784596	85
bin	6429.607591092	69
bin	7418.6240037243	33
bin	8407.6404163567	53
bin	9396.656828989	37
bin	10385.673241621	42
bin	11374.689654254	47
bin	12363.706066886	45
bin	13352.722479518	13
bin	14341.738892151	14
bin	15330.755304783	14
bin	16319.771717415	18
bin	17308.788130048	7
bin	18297.80454268	15
bin	19286.820955312	12
bin	20275.837367945	9
bin	21264.853780577	12
bin	22253.870193209	499
scalar scenarioPRJP1.node[75].lo0.lo 	droppedPkBitError:count 	0
attr interpolationmode  none
attr source  dropPkBitError
attr title  "packets dropped/bit error, count"
scalar scenarioPRJP1.node[75].lo0.lo 	droppedPkBitError:sum(packetBytes) 	0
attr interpolationmode  none
attr source  dropPkBitError
attr title  "packets dropped/bit error, sum(packetBytes)"
scalar scenarioPRJP1.node[75].lo0.lo 	rcvdPkFromHL:count 	0
attr interpolationmode  none
attr source  packetReceivedFromUpper
attr title  "packets received from higher layer, count"
scalar scenarioPRJP1.node[75].lo0.lo 	rcvdPkFromHL:sum(packetBytes) 	0
attr interpolationmode  none
attr source  packetReceivedFromUpper
attr title  "packets received from higher layer, sum(packetBytes)"
scalar scenarioPRJP1.node[75].lo0.lo 	passedUpPk:count 	0
attr interpolationmode  none
attr source  packetSentToUpper
attr title  "packets passed to higher layer, count"
scalar scenarioPRJP1.node[75].lo0.lo 	passedUpPk:sum(packetBytes) 	0
attr interpolationmode  none
attr source  packetSentToUpper
attr title  "packets passed to higher layer, sum(packetBytes)"
scalar scenarioPRJP1.node[89].app 	"Total sent" 	377
scalar scenarioPRJP1.node[89].app 	"Total received" 	50
scalar scenarioPRJP1.node[89].app 	"Total deleted" 	7
scalar scenarioPRJP1.node[89].app 	dropPk:count 	7
attr interpolationmode  none
attr source  dropPk
attr title  "packets dropped, count"
scalar scenarioPRJP1.node[89].app 	dropPk:sum(packetBytes) 	3584
attr interpolationmode  none
attr source  dropPk
attr title  "packets dropped, sum(packetBytes)"
scalar scenarioPRJP1.node[89].app 	outOfOrderPk:count 	0
attr interpolationmode  none
attr source  outOfOrderPk
attr title  "packets received out of order, count"
scalar scenarioPRJP1.node[89].app 	outOfOrderPk:sum(packetBytes) 	0
attr interpolationmode  none
attr source  outOfOrderPk
attr title  "packets received out of order, sum(packetBytes)"
scalar scenarioPRJP1.node[89].app 	rcvdPk:count 	50
attr interpolationmode  none
attr source  rcvdPk
attr title  "packets received, count"
scalar scenarioPRJP1.node[89].app 	rcvdPk:sum(packetBytes) 	25600
attr interpolationmode  none
attr source  rcvdPk
attr title  "packets received, sum(packetBytes)"
statistic scenarioPRJP1.node[89].app 	endToEndDelay:histogram
field count 50
field mean 3.6526706489943
field stddev 5.4520721767447
field sum 182.63353244971
field sqrsum 2123.6296035025
field min 0.000945499146
field max 16.486336144434
attr interpolationmode  none
attr source  messageAge(rcvdPk)
attr title  "delay, histogram"
attr unit  s
bin	-INF	0
bin	-8.241749823498	0
bin	-7.1427237804788	0
bin	-6.0436977374596	0
bin	-4.9446716944404	0
bin	-3.8456456514212	0
bin	-2.746619608402	0
bin	-1.6475935653828	0
bin	-0.5485675223636	26
bin	0.5504585206556	5
bin	1.6494845636748	1
bin	2.748510606694	3
bin	3.8475366497132	1
bin	4.9465626927324	1
bin	6.0455887357516	2
bin	7.1446147787708	0
bin	8.24364082179	2
bin	9.3426668648092	1
bin	10.441692907828	1
bin	11.540718950848	1
bin	12.639744993867	0
bin	13.738771036886	2
bin	14.837797079905	2
bin	15.936823122924	2
bin	17.035849165944	0
bin	18.134875208963	0
bin	19.233901251982	0
bin	20.332927295001	0
bin	21.43195333802	0
bin	22.53097938104	0
bin	23.630005424059	0
bin	24.729031467078	0
scalar scenarioPRJP1.node[89].app 	sentPk:count 	377
attr interpolationmode  none
attr source  sentPk
attr title  "packets sent, count"
scalar scenarioPRJP1.node[89].app 	sentPk:sum(packetBytes) 	193024
attr interpolationmode  none
attr source  sentPk
attr title  "packets sent, sum(packetBytes)"
scalar scenarioPRJP1.node[89].udp 	droppedPkBadChecksum:count 	0
attr interpolationmode  none
attr title  "packets dropped (checksum error), count"
scalar scenarioPRJP1.node[89].udp 	droppedPkWrongPort:count 	0
attr interpolationmode  none
attr title  "packets dropped (wrong port), count"
scalar scenarioPRJP1.node[89].udp 	passedUpPk:count 	57
attr interpolationmode  none
attr title  "packets passed up, count"
scalar scenarioPRJP1.node[89].udp 	rcvdPk:count 	57
attr interpolationmode  none
attr source  rcvdPk
attr title  "packets received, count"
scalar scenarioPRJP1.node[89].udp 	rcvdPk:sum(packetBytes) 	29640
attr interpolationmode  none
attr source  rcvdPk
attr title  "packets received, sum(packetBytes)"
scalar scenarioPRJP1.node[89].udp 	sentPk:count 	377
attr interpolationmode  none
attr source  sentPk
attr title  "packets sent, count"
scalar scenarioPRJP1.node[89].udp 	sentPk:sum(packetBytes) 	196040
attr interpolationmode  none
attr source  sentPk
attr title  "packets sent, sum(packetBytes)"
scalar scenarioPRJP1.node[89].networkLayer.arp 	failedARPResolution:count 	1
attr title  "ARP failed resolutions, count"
scalar scenarioPRJP1.node[89].networkLayer.arp 	completedARPResolution:count 	75
attr title  "ARP completed resolutions, count"
scalar scenarioPRJP1.node[89].networkLayer.arp 	initiatedARPResolution:count 	13
attr title  "ARP initiated resolutions, count"
scalar scenarioPRJP1.node[89].networkLayer.arp 	sentReply:count 	8
attr title  "ARP replies sent, count"
scalar scenarioPRJP1.node[89].networkLayer.arp 	sentReq:count 	22
attr title  "ARP request sent, count"
scalar scenarioPRJP1.node[89].mobility 	startTime 	9.7
scalar scenarioPRJP1.node[89].mobility 	totalTime 	152.5
scalar scenarioPRJP1.node[89].mobility 	stopTime 	162.3
scalar scenarioPRJP1.node[89].mobility 	minSpeed 	2.479832043817e-13
scalar scenarioPRJP1.node[89].mobility 	maxSpeed 	16.114770874357
scalar scenarioPRJP1.node[89].mobility 	totalDistance 	1485.1287210843
scalar scenarioPRJP1.node[89].mobility 	totalCO2Emission 	416.49656284084
scalar scenarioPRJP1.node[89].wlan.mgmt 	dataQueueLen:max 	10
attr interpolationmode  sample-hold
attr title  "data queue length, max"
scalar scenarioPRJP1.node[89].wlan.mgmt 	dataQueueLen:timeavg 	0
attr interpolationmode  sample-hold
attr title  "data queue length, timeavg"
scalar scenarioPRJP1.node[89].wlan.mgmt 	dropPkByQueue:count 	0
attr interpolationmode  none
attr source  dropPkByQueue
attr title  "packets dropped by queue, count"
scalar scenarioPRJP1.node[89].wlan.mgmt 	dropPkByQueue:sum(packetBytes) 	0
attr interpolationmode  none
attr source  dropPkByQueue
attr title  "packets dropped by queue, sum(packetBytes)"
scalar scenarioPRJP1.node[89].wlan.mac 	"number of received packets" 	529
scalar scenarioPRJP1.node[89].wlan.mac 	"number of collisions" 	6578
scalar scenarioPRJP1.node[89].wlan.mac 	"number of internal collisions" 	0
scalar scenarioPRJP1.node[89].wlan.mac 	"number of retry for AC 0" 	1673
scalar scenarioPRJP1.node[89].wlan.mac 	"number of retry for AC 1" 	0
scalar scenarioPRJP1.node[89].wlan.mac 	"number of retry for AC 2" 	0
scalar scenarioPRJP1.node[89].wlan.mac 	"number of retry for AC 3" 	0
scalar scenarioPRJP1.node[89].wlan.mac 	"sent and received bits" 	2557120
scalar scenarioPRJP1.node[89].wlan.mac 	"sent packet within AC 0" 	73
scalar scenarioPRJP1.node[89].wlan.mac 	"sent packet within AC 1" 	0
scalar scenarioPRJP1.node[89].wlan.mac 	"sent packet within AC 2" 	0
scalar scenarioPRJP1.node[89].wlan.mac 	"sent packet within AC 3" 	0
scalar scenarioPRJP1.node[89].wlan.mac 	"sent in TXOP " 	0
scalar scenarioPRJP1.node[89].wlan.mac 	"sentWithoutRetry AC 0" 	55
scalar scenarioPRJP1.node[89].wlan.mac 	"sentWithoutRetry AC 1" 	0
scalar scenarioPRJP1.node[89].wlan.mac 	"sentWithoutRetry AC 2" 	0
scalar scenarioPRJP1.node[89].wlan.mac 	"sentWithoutRetry AC 3" 	0
scalar scenarioPRJP1.node[89].wlan.mac 	"numGivenUp AC 0" 	271
scalar scenarioPRJP1.node[89].wlan.mac 	"numGivenUp AC 1" 	0
scalar scenarioPRJP1.node[89].wlan.mac 	"numGivenUp AC 2" 	0
scalar scenarioPRJP1.node[89].wlan.mac 	"numGivenUp AC 3" 	0
scalar scenarioPRJP1.node[89].wlan.mac 	"numDropped AC 0" 	0
scalar scenarioPRJP1.node[89].wlan.mac 	"numDropped AC 1" 	0
scalar scenarioPRJP1.node[89].wlan.mac 	"numDropped AC 2" 	0
scalar scenarioPRJP1.node[89].wlan.mac 	"numDropped AC 3" 	0
scalar scenarioPRJP1.node[89].wlan.mac 	rcvdPkFromLL:count 	21827
attr interpolationmode  none
attr source  packetReceivedFromLower
attr title  "packets received from lower layer, count"
scalar scenarioPRJP1.node[89].wlan.mac 	rcvdPkFromLL:sum(packetBytes) 	6676296
attr interpolationmode  none
attr source  packetReceivedFromLower
attr title  "packets received from lower layer, sum(packetBytes)"
scalar scenarioPRJP1.node[89].wlan.mac 	sentDownPk:count 	4513
attr interpolationmode  none
attr source  packetSentToLower
attr title  "packets sent to lower layer, count"
scalar scenarioPRJP1.node[89].wlan.mac 	sentDownPk:sum(packetBytes) 	1427956
attr interpolationmode  none
attr source  packetSentToLower
attr title  "packets sent to lower layer, sum(packetBytes)"
scalar scenarioPRJP1.node[89].wlan.mac 	rcvdPkFromHL:count 	2311
attr interpolationmode  none
attr source  packetReceivedFromUpper
attr title  "packets received from higher layer, count"
scalar scenarioPRJP1.node[89].wlan.mac 	rcvdPkFromHL:sum(packetBytes) 	473255
attr interpolationmode  none
attr source  packetReceivedFromUpper
attr title  "packets received from higher layer, sum(packetBytes)"
scalar scenarioPRJP1.node[89].wlan.mac 	passedUpPk:count 	6973
attr interpolationmode  none
attr source  packetSentToUpper
attr title  "packets passed to higher layer, count"
scalar scenarioPRJP1.node[89].wlan.mac 	passedUpPk:sum(packetBytes) 	1072234
attr interpolationmode  none
attr source  packetSentToUpper
attr title  "packets passed to higher layer, sum(packetBytes)"
statistic scenarioPRJP1.node[89].wlan.radio 	radioChannel:histogram
field count 1
field mean 3
field stddev nan
field sum 3
field sqrsum 9
field min 3
field max 3
attr interpolationmode  sample-hold
attr source  radioChannelChanged
attr title  "Radio channel, histogram"
bin	-INF	0
bin	2	0
bin	3	1
bin	4	0
scalar scenarioPRJP1.node[89].wlan.radio 	transmissionState:count 	18052
attr interpolationmode  sample-hold
attr source  transmissionStateChanged
attr title  "Radio transmission state, count"
scalar scenarioPRJP1.node[89].wlan.radio 	receptionState:count 	53805
attr interpolationmode  sample-hold
attr source  receptionStateChanged
attr title  "Radio reception state, count"
scalar scenarioPRJP1.node[89].wlan.radio 	radioMode:count 	9028
attr interpolationmode  sample-hold
attr source  radioModeChanged
attr title  "Radio mode, count"
statistic scenarioPRJP1.node[89].wlan.radio 	symbolErrorRate:histogram
field count 0
field mean nan
field stddev nan
field sum 0
field sqrsum 0
field min nan
field max nan
attr source  symbolErrorRate
attr title  "Symbol error rate, histogram"
bin	-INF	0
bin	-0.5	0
bin	-0.46666666666667	0
bin	-0.43333333333333	0
bin	-0.4	0
bin	-0.36666666666667	0
bin	-0.33333333333333	0
bin	-0.3	0
bin	-0.26666666666667	0
bin	-0.23333333333333	0
bin	-0.2	0
bin	-0.16666666666667	0
bin	-0.13333333333333	0
bin	-0.1	0
bin	-0.066666666666667	0
bin	-0.033333333333333	0
bin	0	0
bin	0.033333333333333	0
bin	0.066666666666667	0
bin	0.1	0
bin	0.13333333333333	0
bin	0.16666666666667	0
bin	0.2	0
bin	0.23333333333333	0
bin	0.26666666666667	0
bin	0.3	0
bin	0.33333333333333	0
bin	0.36666666666667	0
bin	0.4	0
bin	0.43333333333333	0
bin	0.46666666666667	0
bin	0.5	0
statistic scenarioPRJP1.node[89].wlan.radio 	bitErrorRate:histogram
field count 0
field mean nan
field stddev nan
field sum 0
field sqrsum 0
field min nan
field max nan
attr source  bitErrorRate
attr title  "Bit error rate, histogram"
bin	-INF	0
bin	-0.5	0
bin	-0.46666666666667	0
bin	-0.43333333333333	0
bin	-0.4	0
bin	-0.36666666666667	0
bin	-0.33333333333333	0
bin	-0.3	0
bin	-0.26666666666667	0
bin	-0.23333333333333	0
bin	-0.2	0
bin	-0.16666666666667	0
bin	-0.13333333333333	0
bin	-0.1	0
bin	-0.066666666666667	0
bin	-0.033333333333333	0
bin	0	0
bin	0.033333333333333	0
bin	0.066666666666667	0
bin	0.1	0
bin	0.13333333333333	0
bin	0.16666666666667	0
bin	0.2	0
bin	0.23333333333333	0
bin	0.26666666666667	0
bin	0.3	0
bin	0.33333333333333	0
bin	0.36666666666667	0
bin	0.4	0
bin	0.43333333333333	0
bin	0.46666666666667	0
bin	0.5	0
statistic scenarioPRJP1.node[89].wlan.radio 	packetErrorRate:histogram
field count 21827
field mean 0.27298447441372
field stddev 0.43401883865355
field sum 5958.4321230282
field sqrsum 5737.9744228692
field min 0
field max 1
attr source  packetErrorRate
attr title  "Packet error rate, histogram"
bin	-INF	0
bin	-0.5	0
bin	-0.43333333333333	0
bin	-0.36666666666667	0
bin	-0.3	0
bin	-0.23333333333333	0
bin	-0.16666666666667	0
bin	-0.1	0
bin	-0.033333333333333	14999
bin	0.033333333333333	354
bin	0.1	161
bin	0.16666666666667	116
bin	0.23333333333333	92
bin	0.3	66
bin	0.36666666666667	74
bin	0.43333333333333	58
bin	0.5	53
bin	0.56666666666667	73
bin	0.63333333333333	62
bin	0.7	72
bin	0.76666666666667	70
bin	0.83333333333333	63
bin	0.9	141
bin	0.96666666666667	5373
bin	1.0333333333333	0
bin	1.1	0
bin	1.1666666666667	0
bin	1.2333333333333	0
bin	1.3	0
bin	1.3666666666667	0
bin	1.4333333333333	0
bin	1.5	0
statistic scenarioPRJP1.node[89].wlan.radio 	minSNIR:histogram
field count 21827
field mean 1386.323981795
field stddev 11059.259050252
field sum 30259293.550639
field sqrsum 2711426365945.5
field min 0.00071612241284539
field max 177343.60925674
attr source  minSNIR
attr title  "Min SNIR, histogram"
bin	-INF	0
bin	-19746.940201513	0
bin	-17113.85336365	0
bin	-14480.766525787	0
bin	-11847.679687924	0
bin	-9214.5928500608	0
bin	-6581.5060121979	0
bin	-3948.4191743349	0
bin	-1315.332336472	19664
bin	1317.7545013909	1294
bin	3950.8413392539	276
bin	6583.9281771168	102
bin	9217.0150149797	93
bin	11850.101852843	80
bin	14483.188690706	50
bin	17116.275528569	36
bin	19749.362366431	27
bin	22382.449204294	26
bin	25015.536042157	11
bin	27648.62288002	13
bin	30281.709717883	8
bin	32914.796555746	3
bin	35547.883393609	3
bin	38180.970231472	9
bin	40814.057069335	6
bin	43447.143907198	0
bin	46080.230745061	1
bin	48713.317582924	7
bin	51346.404420787	1
bin	53979.49125865	2
bin	56612.578096513	0
bin	59245.664934375	115
scalar scenarioPRJP1.node[89].lo0.lo 	droppedPkBitError:count 	0
attr interpolationmode  none
attr source  dropPkBitError
attr title  "packets dropped/bit error, count"
scalar scenarioPRJP1.node[89].lo0.lo 	droppedPkBitError:sum(packetBytes) 	0
attr interpolationmode  none
attr source  dropPkBitError
attr title  "packets dropped/bit error, sum(packetBytes)"
scalar scenarioPRJP1.node[89].lo0.lo 	rcvdPkFromHL:count 	0
attr interpolationmode  none
attr source  packetReceivedFromUpper
attr title  "packets received from higher layer, count"
scalar scenarioPRJP1.node[89].lo0.lo 	rcvdPkFromHL:sum(packetBytes) 	0
attr interpolationmode  none
attr source  packetReceivedFromUpper
attr title  "packets received from higher layer, sum(packetBytes)"
scalar scenarioPRJP1.node[89].lo0.lo 	passedUpPk:count 	0
attr interpolationmode  none
attr source  packetSentToUpper
attr title  "packets passed to higher layer, count"
scalar scenarioPRJP1.node[89].lo0.lo 	passedUpPk:sum(packetBytes) 	0
attr interpolationmode  none
attr source  packetSentToUpper
attr title  "packets passed to higher layer, sum(packetBytes)"
scalar scenarioPRJP1.node[49].app 	"Total sent" 	383
scalar scenarioPRJP1.node[49].app 	"Total received" 	75
scalar scenarioPRJP1.node[49].app 	"Total deleted" 	6
scalar scenarioPRJP1.node[49].app 	dropPk:count 	6
attr interpolationmode  none
attr source  dropPk
attr title  "packets dropped, count"
scalar scenarioPRJP1.node[49].app 	dropPk:sum(packetBytes) 	3072
attr interpolationmode  none
attr source  dropPk
attr title  "packets dropped, sum(packetBytes)"
scalar scenarioPRJP1.node[49].app 	outOfOrderPk:count 	0
attr interpolationmode  none
attr source  outOfOrderPk
attr title  "packets received out of order, count"
scalar scenarioPRJP1.node[49].app 	outOfOrderPk:sum(packetBytes) 	0
attr interpolationmode  none
attr source  outOfOrderPk
attr title  "packets received out of order, sum(packetBytes)"
scalar scenarioPRJP1.node[49].app 	rcvdPk:count 	75
attr interpolationmode  none
attr source  rcvdPk
attr title  "packets received, count"
scalar scenarioPRJP1.node[49].app 	rcvdPk:sum(packetBytes) 	38400
attr interpolationmode  none
attr source  rcvdPk
attr title  "packets received, sum(packetBytes)"
statistic scenarioPRJP1.node[49].app 	endToEndDelay:histogram
field count 75
field mean 4.2169363995547
field stddev 5.8931271899686
field sum 316.2702299666
field sqrsum 3903.6336025506
field min 0.000945405477
field max 19.580405077605
attr interpolationmode  none
attr source  messageAge(rcvdPk)
attr title  "delay, histogram"
attr unit  s
bin	-INF	0
bin	-9.788784430587	0
bin	-8.4834871191118	0
bin	-7.1781898076366	0
bin	-5.8728924961614	0
bin	-4.5675951846862	0
bin	-3.262297873211	0
bin	-1.9570005617358	0
bin	-0.6517032502606	32
bin	0.6535940612146	10
bin	1.9588913726898	5
bin	3.264188684165	5
bin	4.5694859956402	3
bin	5.8747833071154	2
bin	7.1800806185906	1
bin	8.4853779300658	2
bin	9.790675241541	3
bin	11.095972553016	2
bin	12.401269864491	2
bin	13.706567175967	1
bin	15.011864487442	0
bin	16.317161798917	3
bin	17.622459110392	1
bin	18.927756421867	3
bin	20.233053733343	0
bin	21.538351044818	0
bin	22.843648356293	0
bin	24.148945667768	0
bin	25.454242979243	0
bin	26.759540290719	0
bin	28.064837602194	0
bin	29.370134913669	0
scalar scenarioPRJP1.node[49].app 	sentPk:count 	383
attr interpolationmode  none
attr source  sentPk
attr title  "packets sent, count"
scalar scenarioPRJP1.node[49].app 	sentPk:sum(packetBytes) 	196096
attr interpolationmode  none
attr source  sentPk
attr title  "packets sent, sum(packetBytes)"
scalar scenarioPRJP1.node[49].udp 	droppedPkBadChecksum:count 	0
attr interpolationmode  none
attr title  "packets dropped (checksum error), count"
scalar scenarioPRJP1.node[49].udp 	droppedPkWrongPort:count 	0
attr interpolationmode  none
attr title  "packets dropped (wrong port), count"
scalar scenarioPRJP1.node[49].udp 	passedUpPk:count 	81
attr interpolationmode  none
attr title  "packets passed up, count"
scalar scenarioPRJP1.node[49].udp 	rcvdPk:count 	81
attr interpolationmode  none
attr source  rcvdPk
attr title  "packets received, count"
scalar scenarioPRJP1.node[49].udp 	rcvdPk:sum(packetBytes) 	42120
attr interpolationmode  none
attr source  rcvdPk
attr title  "packets received, sum(packetBytes)"
scalar scenarioPRJP1.node[49].udp 	sentPk:count 	383
attr interpolationmode  none
attr source  sentPk
attr title  "packets sent, count"
scalar scenarioPRJP1.node[49].udp 	sentPk:sum(packetBytes) 	199160
attr interpolationmode  none
attr source  sentPk
attr title  "packets sent, sum(packetBytes)"
scalar scenarioPRJP1.node[49].networkLayer.arp 	failedARPResolution:count 	1
attr title  "ARP failed resolutions, count"
scalar scenarioPRJP1.node[49].networkLayer.arp 	completedARPResolution:count 	98
attr title  "ARP completed resolutions, count"
scalar scenarioPRJP1.node[49].networkLayer.arp 	initiatedARPResolution:count 	12
attr title  "ARP initiated resolutions, count"
scalar scenarioPRJP1.node[49].networkLayer.arp 	sentReply:count 	11
attr title  "ARP replies sent, count"
scalar scenarioPRJP1.node[49].networkLayer.arp 	sentReq:count 	23
attr title  "ARP request sent, count"
scalar scenarioPRJP1.node[49].mobility 	startTime 	4.9
scalar scenarioPRJP1.node[49].mobility 	totalTime 	158.8
scalar scenarioPRJP1.node[49].mobility 	stopTime 	163.8
scalar scenarioPRJP1.node[49].mobility 	minSpeed 	2.4759422799021e-13
scalar scenarioPRJP1.node[49].mobility 	maxSpeed 	14.909214550763
scalar scenarioPRJP1.node[49].mobility 	totalDistance 	1484.5994863246
scalar scenarioPRJP1.node[49].mobility 	totalCO2Emission 	399.70046517106
scalar scenarioPRJP1.node[49].wlan.mgmt 	dataQueueLen:max 	5
attr interpolationmode  sample-hold
attr title  "data queue length, max"
scalar scenarioPRJP1.node[49].wlan.mgmt 	dataQueueLen:timeavg 	0
attr interpolationmode  sample-hold
attr title  "data queue length, timeavg"
scalar scenarioPRJP1.node[49].wlan.mgmt 	dropPkByQueue:count 	0
attr interpolationmode  none
attr source  dropPkByQueue
attr title  "packets dropped by queue, count"
scalar scenarioPRJP1.node[49].wlan.mgmt 	dropPkByQueue:sum(packetBytes) 	0
attr interpolationmode  none
attr source  dropPkByQueue
attr title  "packets dropped by queue, sum(packetBytes)"
scalar scenarioPRJP1.node[49].wlan.mac 	"number of received packets" 	806
scalar scenarioPRJP1.node[49].wlan.mac 	"number of collisions" 	4984
scalar scenarioPRJP1.node[49].wlan.mac 	"number of internal collisions" 	0
scalar scenarioPRJP1.node[49].wlan.mac 	"number of retry for AC 0" 	1662
scalar scenarioPRJP1.node[49].wlan.mac 	"number of retry for AC 1" 	0
scalar scenarioPRJP1.node[49].wlan.mac 	"number of retry for AC 2" 	0
scalar scenarioPRJP1.node[49].wlan.mac 	"number of retry for AC 3" 	0
scalar scenarioPRJP1.node[49].wlan.mac 	"sent and received bits" 	3281656
scalar scenarioPRJP1.node[49].wlan.mac 	"sent packet within AC 0" 	119
scalar scenarioPRJP1.node[49].wlan.mac 	"sent packet within AC 1" 	0
scalar scenarioPRJP1.node[49].wlan.mac 	"sent packet within AC 2" 	0
scalar scenarioPRJP1.node[49].wlan.mac 	"sent packet within AC 3" 	0
scalar scenarioPRJP1.node[49].wlan.mac 	"sent in TXOP " 	0
scalar scenarioPRJP1.node[49].wlan.mac 	"sentWithoutRetry AC 0" 	100
scalar scenarioPRJP1.node[49].wlan.mac 	"sentWithoutRetry AC 1" 	0
scalar scenarioPRJP1.node[49].wlan.mac 	"sentWithoutRetry AC 2" 	0
scalar scenarioPRJP1.node[49].wlan.mac 	"sentWithoutRetry AC 3" 	0
scalar scenarioPRJP1.node[49].wlan.mac 	"numGivenUp AC 0" 	267
scalar scenarioPRJP1.node[49].wlan.mac 	"numGivenUp AC 1" 	0
scalar scenarioPRJP1.node[49].wlan.mac 	"numGivenUp AC 2" 	0
scalar scenarioPRJP1.node[49].wlan.mac 	"numGivenUp AC 3" 	0
scalar scenarioPRJP1.node[49].wlan.mac 	"numDropped AC 0" 	0
scalar scenarioPRJP1.node[49].wlan.mac 	"numDropped AC 1" 	0
scalar scenarioPRJP1.node[49].wlan.mac 	"numDropped AC 2" 	0
scalar scenarioPRJP1.node[49].wlan.mac 	"numDropped AC 3" 	0
scalar scenarioPRJP1.node[49].wlan.mac 	rcvdPkFromLL:count 	26147
attr interpolationmode  none
attr source  packetReceivedFromLower
attr title  "packets received from lower layer, count"
scalar scenarioPRJP1.node[49].wlan.mac 	rcvdPkFromLL:sum(packetBytes) 	7554315
attr interpolationmode  none
attr source  packetReceivedFromLower
attr title  "packets received from lower layer, sum(packetBytes)"
scalar scenarioPRJP1.node[49].wlan.mac 	sentDownPk:count 	5132
attr interpolationmode  none
attr source  packetSentToLower
attr title  "packets sent to lower layer, count"
scalar scenarioPRJP1.node[49].wlan.mac 	sentDownPk:sum(packetBytes) 	1487718
attr interpolationmode  none
attr source  packetSentToLower
attr title  "packets sent to lower layer, sum(packetBytes)"
scalar scenarioPRJP1.node[49].wlan.mac 	rcvdPkFromHL:count 	2664
attr interpolationmode  none
attr source  packetReceivedFromUpper
attr title  "packets received from higher layer, count"
scalar scenarioPRJP1.node[49].wlan.mac 	rcvdPkFromHL:sum(packetBytes) 	557588
attr interpolationmode  none
attr source  packetReceivedFromUpper
attr title  "packets received from higher layer, sum(packetBytes)"
scalar scenarioPRJP1.node[49].wlan.mac 	passedUpPk:count 	8990
attr interpolationmode  none
attr source  packetSentToUpper
attr title  "packets passed to higher layer, count"
scalar scenarioPRJP1.node[49].wlan.mac 	passedUpPk:sum(packetBytes) 	1465627
attr interpolationmode  none
attr source  packetSentToUpper
attr title  "packets passed to higher layer, sum(packetBytes)"
statistic scenarioPRJP1.node[49].wlan.radio 	radioChannel:histogram
field count 1
field mean 3
field stddev nan
field sum 3
field sqrsum 9
field min 3
field max 3
attr interpolationmode  sample-hold
attr source  radioChannelChanged
attr title  "Radio channel, histogram"
bin	-INF	0
bin	2	0
bin	3	1
bin	4	0
scalar scenarioPRJP1.node[49].wlan.radio 	transmissionState:count 	20528
attr interpolationmode  sample-hold
attr source  transmissionStateChanged
attr title  "Radio transmission state, count"
scalar scenarioPRJP1.node[49].wlan.radio 	receptionState:count 	63778
attr interpolationmode  sample-hold
attr source  receptionStateChanged
attr title  "Radio reception state, count"
scalar scenarioPRJP1.node[49].wlan.radio 	radioMode:count 	10266
attr interpolationmode  sample-hold
attr source  radioModeChanged
attr title  "Radio mode, count"
statistic scenarioPRJP1.node[49].wlan.radio 	symbolErrorRate:histogram
field count 0
field mean nan
field stddev nan
field sum 0
field sqrsum 0
field min nan
field max nan
attr source  symbolErrorRate
attr title  "Symbol error rate, histogram"
bin	-INF	0
bin	-0.5	0
bin	-0.46666666666667	0
bin	-0.43333333333333	0
bin	-0.4	0
bin	-0.36666666666667	0
bin	-0.33333333333333	0
bin	-0.3	0
bin	-0.26666666666667	0
bin	-0.23333333333333	0
bin	-0.2	0
bin	-0.16666666666667	0
bin	-0.13333333333333	0
bin	-0.1	0
bin	-0.066666666666667	0
bin	-0.033333333333333	0
bin	0	0
bin	0.033333333333333	0
bin	0.066666666666667	0
bin	0.1	0
bin	0.13333333333333	0
bin	0.16666666666667	0
bin	0.2	0
bin	0.23333333333333	0
bin	0.26666666666667	0
bin	0.3	0
bin	0.33333333333333	0
bin	0.36666666666667	0
bin	0.4	0
bin	0.43333333333333	0
bin	0.46666666666667	0
bin	0.5	0
statistic scenarioPRJP1.node[49].wlan.radio 	bitErrorRate:histogram
field count 0
field mean nan
field stddev nan
field sum 0
field sqrsum 0
field min nan
field max nan
attr source  bitErrorRate
attr title  "Bit error rate, histogram"
bin	-INF	0
bin	-0.5	0
bin	-0.46666666666667	0
bin	-0.43333333333333	0
bin	-0.4	0
bin	-0.36666666666667	0
bin	-0.33333333333333	0
bin	-0.3	0
bin	-0.26666666666667	0
bin	-0.23333333333333	0
bin	-0.2	0
bin	-0.16666666666667	0
bin	-0.13333333333333	0
bin	-0.1	0
bin	-0.066666666666667	0
bin	-0.033333333333333	0
bin	0	0
bin	0.033333333333333	0
bin	0.066666666666667	0
bin	0.1	0
bin	0.13333333333333	0
bin	0.16666666666667	0
bin	0.2	0
bin	0.23333333333333	0
bin	0.26666666666667	0
bin	0.3	0
bin	0.33333333333333	0
bin	0.36666666666667	0
bin	0.4	0
bin	0.43333333333333	0
bin	0.46666666666667	0
bin	0.5	0
statistic scenarioPRJP1.node[49].wlan.radio 	packetErrorRate:histogram
field count 26147
field mean 0.16951038457616
field stddev 0.36498956909732
field sum 4432.1880255129
field sqrsum 4234.4036593049
field min 0
field max 1
attr source  packetErrorRate
attr title  "Packet error rate, histogram"
bin	-INF	0
bin	-0.5	0
bin	-0.43333333333333	0
bin	-0.36666666666667	0
bin	-0.3	0
bin	-0.23333333333333	0
bin	-0.16666666666667	0
bin	-0.1	0
bin	-0.033333333333333	20908
bin	0.033333333333333	335
bin	0.1	149
bin	0.16666666666667	115
bin	0.23333333333333	77
bin	0.3	77
bin	0.36666666666667	58
bin	0.43333333333333	59
bin	0.5	55
bin	0.56666666666667	52
bin	0.63333333333333	49
bin	0.7	68
bin	0.76666666666667	47
bin	0.83333333333333	64
bin	0.9	99
bin	0.96666666666667	3935
bin	1.0333333333333	0
bin	1.1	0
bin	1.1666666666667	0
bin	1.2333333333333	0
bin	1.3	0
bin	1.3666666666667	0
bin	1.4333333333333	0
bin	1.5	0
statistic scenarioPRJP1.node[49].wlan.radio 	minSNIR:histogram
field count 26147
field mean 1800.0507961284
field stddev 25311.859470385
field sum 47065928.166371
field sqrsum 16836207811086
field min 0.00017063478633857
field max 753239.7075894
attr source  minSNIR
attr title  "Min SNIR, histogram"
bin	-INF	0
bin	-17889.815453184	0
bin	-15504.343026803	0
bin	-13118.870600422	0
bin	-10733.398174041	0
bin	-8347.9257476605	0
bin	-5962.4533212797	0
bin	-3576.9808948989	0
bin	-1191.5084685181	24759
bin	1193.9639578627	552
bin	3579.4363842435	238
bin	5964.9088106243	85
bin	8350.3812370051	95
bin	10735.853663386	60
bin	13121.326089767	31
bin	15506.798516148	59
bin	17892.270942528	21
bin	20277.743368909	9
bin	22663.21579529	11
bin	25048.688221671	6
bin	27434.160648052	4
bin	29819.633074432	7
bin	32205.105500813	4
bin	34590.577927194	3
bin	36976.050353575	10
bin	39361.522779956	2
bin	41746.995206337	8
bin	44132.467632717	11
bin	46517.940059098	7
bin	48903.412485479	3
bin	51288.88491186	2
bin	53674.357338241	160
scalar scenarioPRJP1.node[49].lo0.lo 	droppedPkBitError:count 	0
attr interpolationmode  none
attr source  dropPkBitError
attr title  "packets dropped/bit error, count"
scalar scenarioPRJP1.node[49].lo0.lo 	droppedPkBitError:sum(packetBytes) 	0
attr interpolationmode  none
attr source  dropPkBitError
attr title  "packets dropped/bit error, sum(packetBytes)"
scalar scenarioPRJP1.node[49].lo0.lo 	rcvdPkFromHL:count 	0
attr interpolationmode  none
attr source  packetReceivedFromUpper
attr title  "packets received from higher layer, count"
scalar scenarioPRJP1.node[49].lo0.lo 	rcvdPkFromHL:sum(packetBytes) 	0
attr interpolationmode  none
attr source  packetReceivedFromUpper
attr title  "packets received from higher layer, sum(packetBytes)"
scalar scenarioPRJP1.node[49].lo0.lo 	passedUpPk:count 	0
attr interpolationmode  none
attr source  packetSentToUpper
attr title  "packets passed to higher layer, count"
scalar scenarioPRJP1.node[49].lo0.lo 	passedUpPk:sum(packetBytes) 	0
attr interpolationmode  none
attr source  packetSentToUpper
attr title  "packets passed to higher layer, sum(packetBytes)"
scalar scenarioPRJP1.node[32].app 	"Total sent" 	617
scalar scenarioPRJP1.node[32].app 	"Total received" 	100
scalar scenarioPRJP1.node[32].app 	"Total deleted" 	23
scalar scenarioPRJP1.node[32].app 	dropPk:count 	23
attr interpolationmode  none
attr source  dropPk
attr title  "packets dropped, count"
scalar scenarioPRJP1.node[32].app 	dropPk:sum(packetBytes) 	11776
attr interpolationmode  none
attr source  dropPk
attr title  "packets dropped, sum(packetBytes)"
scalar scenarioPRJP1.node[32].app 	outOfOrderPk:count 	1
attr interpolationmode  none
attr source  outOfOrderPk
attr title  "packets received out of order, count"
scalar scenarioPRJP1.node[32].app 	outOfOrderPk:sum(packetBytes) 	512
attr interpolationmode  none
attr source  outOfOrderPk
attr title  "packets received out of order, sum(packetBytes)"
scalar scenarioPRJP1.node[32].app 	rcvdPk:count 	100
attr interpolationmode  none
attr source  rcvdPk
attr title  "packets received, count"
scalar scenarioPRJP1.node[32].app 	rcvdPk:sum(packetBytes) 	51200
attr interpolationmode  none
attr source  rcvdPk
attr title  "packets received, sum(packetBytes)"
statistic scenarioPRJP1.node[32].app 	endToEndDelay:histogram
field count 100
field mean 5.0049531036613
field stddev 5.9234444038102
field sum 500.49531036613
field sqrsum 5978.5877238829
field min 0.000945136177
field max 19.402457432339
attr interpolationmode  none
attr source  messageAge(rcvdPk)
attr title  "delay, histogram"
attr unit  s
bin	-INF	0
bin	-9.699811011904	0
bin	-8.4063768588265	0
bin	-7.1129427057491	0
bin	-5.8195085526716	0
bin	-4.5260743995941	0
bin	-3.2326402465167	0
bin	-1.9392060934392	0
bin	-0.64577194036174	42
bin	0.64766221271573	6
bin	1.9410963657932	7
bin	3.2345305188707	5
bin	4.5279646719481	4
bin	5.8213988250256	5
bin	7.1148329781031	4
bin	8.4082671311805	1
bin	9.701701284258	3
bin	10.995135437335	4
bin	12.288569590413	10
bin	13.58200374349	0
bin	14.875437896568	4
bin	16.168872049645	2
bin	17.462306202723	2
bin	18.7557403558	1
bin	20.049174508878	0
bin	21.342608661955	0
bin	22.636042815033	0
bin	23.92947696811	0
bin	25.222911121188	0
bin	26.516345274265	0
bin	27.809779427343	0
bin	29.10321358042	0
scalar scenarioPRJP1.node[32].app 	sentPk:count 	617
attr interpolationmode  none
attr source  sentPk
attr title  "packets sent, count"
scalar scenarioPRJP1.node[32].app 	sentPk:sum(packetBytes) 	315904
attr interpolationmode  none
attr source  sentPk
attr title  "packets sent, sum(packetBytes)"
scalar scenarioPRJP1.node[32].udp 	droppedPkBadChecksum:count 	0
attr interpolationmode  none
attr title  "packets dropped (checksum error), count"
scalar scenarioPRJP1.node[32].udp 	droppedPkWrongPort:count 	0
attr interpolationmode  none
attr title  "packets dropped (wrong port), count"
scalar scenarioPRJP1.node[32].udp 	passedUpPk:count 	124
attr interpolationmode  none
attr title  "packets passed up, count"
scalar scenarioPRJP1.node[32].udp 	rcvdPk:count 	124
attr interpolationmode  none
attr source  rcvdPk
attr title  "packets received, count"
scalar scenarioPRJP1.node[32].udp 	rcvdPk:sum(packetBytes) 	64480
attr interpolationmode  none
attr source  rcvdPk
attr title  "packets received, sum(packetBytes)"
scalar scenarioPRJP1.node[32].udp 	sentPk:count 	617
attr interpolationmode  none
attr source  sentPk
attr title  "packets sent, count"
scalar scenarioPRJP1.node[32].udp 	sentPk:sum(packetBytes) 	320840
attr interpolationmode  none
attr source  sentPk
attr title  "packets sent, sum(packetBytes)"
scalar scenarioPRJP1.node[32].networkLayer.arp 	failedARPResolution:count 	3
attr title  "ARP failed resolutions, count"
scalar scenarioPRJP1.node[32].networkLayer.arp 	completedARPResolution:count 	187
attr title  "ARP completed resolutions, count"
scalar scenarioPRJP1.node[32].networkLayer.arp 	initiatedARPResolution:count 	22
attr title  "ARP initiated resolutions, count"
scalar scenarioPRJP1.node[32].networkLayer.arp 	sentReply:count 	14
attr title  "ARP replies sent, count"
scalar scenarioPRJP1.node[32].networkLayer.arp 	sentReq:count 	35
attr title  "ARP request sent, count"
scalar scenarioPRJP1.node[32].mobility 	startTime 	2.5
scalar scenarioPRJP1.node[32].mobility 	totalTime 	241.7
scalar scenarioPRJP1.node[32].mobility 	stopTime 	244.3
scalar scenarioPRJP1.node[32].mobility 	minSpeed 	2.4760220126885e-13
scalar scenarioPRJP1.node[32].mobility 	maxSpeed 	20.489427582946
scalar scenarioPRJP1.node[32].mobility 	totalDistance 	2234.3487141896
scalar scenarioPRJP1.node[32].mobility 	totalCO2Emission 	691.15847019764
scalar scenarioPRJP1.node[32].wlan.mgmt 	dataQueueLen:max 	22
attr interpolationmode  sample-hold
attr title  "data queue length, max"
scalar scenarioPRJP1.node[32].wlan.mgmt 	dataQueueLen:timeavg 	0
attr interpolationmode  sample-hold
attr title  "data queue length, timeavg"
scalar scenarioPRJP1.node[32].wlan.mgmt 	dropPkByQueue:count 	0
attr interpolationmode  none
attr source  dropPkByQueue
attr title  "packets dropped by queue, count"
scalar scenarioPRJP1.node[32].wlan.mgmt 	dropPkByQueue:sum(packetBytes) 	0
attr interpolationmode  none
attr source  dropPkByQueue
attr title  "packets dropped by queue, sum(packetBytes)"
scalar scenarioPRJP1.node[32].wlan.mac 	"number of received packets" 	1149
scalar scenarioPRJP1.node[32].wlan.mac 	"number of collisions" 	10721
scalar scenarioPRJP1.node[32].wlan.mac 	"number of internal collisions" 	0
scalar scenarioPRJP1.node[32].wlan.mac 	"number of retry for AC 0" 	2437
scalar scenarioPRJP1.node[32].wlan.mac 	"number of retry for AC 1" 	0
scalar scenarioPRJP1.node[32].wlan.mac 	"number of retry for AC 2" 	0
scalar scenarioPRJP1.node[32].wlan.mac 	"number of retry for AC 3" 	0
scalar scenarioPRJP1.node[32].wlan.mac 	"sent and received bits" 	4769640
scalar scenarioPRJP1.node[32].wlan.mac 	"sent packet within AC 0" 	204
scalar scenarioPRJP1.node[32].wlan.mac 	"sent packet within AC 1" 	0
scalar scenarioPRJP1.node[32].wlan.mac 	"sent packet within AC 2" 	0
scalar scenarioPRJP1.node[32].wlan.mac 	"sent packet within AC 3" 	0
scalar scenarioPRJP1.node[32].wlan.mac 	"sent in TXOP " 	0
scalar scenarioPRJP1.node[32].wlan.mac 	"sentWithoutRetry AC 0" 	157
scalar scenarioPRJP1.node[32].wlan.mac 	"sentWithoutRetry AC 1" 	0
scalar scenarioPRJP1.node[32].wlan.mac 	"sentWithoutRetry AC 2" 	0
scalar scenarioPRJP1.node[32].wlan.mac 	"sentWithoutRetry AC 3" 	0
scalar scenarioPRJP1.node[32].wlan.mac 	"numGivenUp AC 0" 	385
scalar scenarioPRJP1.node[32].wlan.mac 	"numGivenUp AC 1" 	0
scalar scenarioPRJP1.node[32].wlan.mac 	"numGivenUp AC 2" 	0
scalar scenarioPRJP1.node[32].wlan.mac 	"numGivenUp AC 3" 	0
scalar scenarioPRJP1.node[32].wlan.mac 	"numDropped AC 0" 	0
scalar scenarioPRJP1.node[32].wlan.mac 	"numDropped AC 1" 	0
scalar scenarioPRJP1.node[32].wlan.mac 	"numDropped AC 2" 	0
scalar scenarioPRJP1.node[32].wlan.mac 	"numDropped AC 3" 	0
scalar scenarioPRJP1.node[32].wlan.mac 	rcvdPkFromLL:count 	49303
attr interpolationmode  none
attr source  packetReceivedFromLower
attr title  "packets received from lower layer, count"
scalar scenarioPRJP1.node[32].wlan.mac 	rcvdPkFromLL:sum(packetBytes) 	14513494
attr interpolationmode  none
attr source  packetReceivedFromLower
attr title  "packets received from lower layer, sum(packetBytes)"
scalar scenarioPRJP1.node[32].wlan.mac 	sentDownPk:count 	7836
attr interpolationmode  none
attr source  packetSentToLower
attr title  "packets sent to lower layer, count"
scalar scenarioPRJP1.node[32].wlan.mac 	sentDownPk:sum(packetBytes) 	2177920
attr interpolationmode  none
attr source  packetSentToLower
attr title  "packets sent to lower layer, sum(packetBytes)"
scalar scenarioPRJP1.node[32].wlan.mac 	rcvdPkFromHL:count 	4250
attr interpolationmode  none
attr source  packetReceivedFromUpper
attr title  "packets received from higher layer, count"
scalar scenarioPRJP1.node[32].wlan.mac 	rcvdPkFromHL:sum(packetBytes) 	809416
attr interpolationmode  none
attr source  packetReceivedFromUpper
attr title  "packets received from higher layer, sum(packetBytes)"
scalar scenarioPRJP1.node[32].wlan.mac 	passedUpPk:count 	16719
attr interpolationmode  none
attr source  packetSentToUpper
attr title  "packets passed to higher layer, count"
scalar scenarioPRJP1.node[32].wlan.mac 	passedUpPk:sum(packetBytes) 	2467595
attr interpolationmode  none
attr source  packetSentToUpper
attr title  "packets passed to higher layer, sum(packetBytes)"
statistic scenarioPRJP1.node[32].wlan.radio 	radioChannel:histogram
field count 1
field mean 3
field stddev nan
field sum 3
field sqrsum 9
field min 3
field max 3
attr interpolationmode  sample-hold
attr source  radioChannelChanged
attr title  "Radio channel, histogram"
bin	-INF	0
bin	2	0
bin	3	1
bin	4	0
scalar scenarioPRJP1.node[32].wlan.radio 	transmissionState:count 	31344
attr interpolationmode  sample-hold
attr source  transmissionStateChanged
attr title  "Radio transmission state, count"
scalar scenarioPRJP1.node[32].wlan.radio 	receptionState:count 	118118
attr interpolationmode  sample-hold
attr source  receptionStateChanged
attr title  "Radio reception state, count"
scalar scenarioPRJP1.node[32].wlan.radio 	radioMode:count 	15674
attr interpolationmode  sample-hold
attr source  radioModeChanged
attr title  "Radio mode, count"
statistic scenarioPRJP1.node[32].wlan.radio 	symbolErrorRate:histogram
field count 0
field mean nan
field stddev nan
field sum 0
field sqrsum 0
field min nan
field max nan
attr source  symbolErrorRate
attr title  "Symbol error rate, histogram"
bin	-INF	0
bin	-0.5	0
bin	-0.46666666666667	0
bin	-0.43333333333333	0
bin	-0.4	0
bin	-0.36666666666667	0
bin	-0.33333333333333	0
bin	-0.3	0
bin	-0.26666666666667	0
bin	-0.23333333333333	0
bin	-0.2	0
bin	-0.16666666666667	0
bin	-0.13333333333333	0
bin	-0.1	0
bin	-0.066666666666667	0
bin	-0.033333333333333	0
bin	0	0
bin	0.033333333333333	0
bin	0.066666666666667	0
bin	0.1	0
bin	0.13333333333333	0
bin	0.16666666666667	0
bin	0.2	0
bin	0.23333333333333	0
bin	0.26666666666667	0
bin	0.3	0
bin	0.33333333333333	0
bin	0.36666666666667	0
bin	0.4	0
bin	0.43333333333333	0
bin	0.46666666666667	0
bin	0.5	0
statistic scenarioPRJP1.node[32].wlan.radio 	bitErrorRate:histogram
field count 0
field mean nan
field stddev nan
field sum 0
field sqrsum 0
field min nan
field max nan
attr source  bitErrorRate
attr title  "Bit error rate, histogram"
bin	-INF	0
bin	-0.5	0
bin	-0.46666666666667	0
bin	-0.43333333333333	0
bin	-0.4	0
bin	-0.36666666666667	0
bin	-0.33333333333333	0
bin	-0.3	0
bin	-0.26666666666667	0
bin	-0.23333333333333	0
bin	-0.2	0
bin	-0.16666666666667	0
bin	-0.13333333333333	0
bin	-0.1	0
bin	-0.066666666666667	0
bin	-0.033333333333333	0
bin	0	0
bin	0.033333333333333	0
bin	0.066666666666667	0
bin	0.1	0
bin	0.13333333333333	0
bin	0.16666666666667	0
bin	0.2	0
bin	0.23333333333333	0
bin	0.26666666666667	0
bin	0.3	0
bin	0.33333333333333	0
bin	0.36666666666667	0
bin	0.4	0
bin	0.43333333333333	0
bin	0.46666666666667	0
bin	0.5	0
statistic scenarioPRJP1.node[32].wlan.radio 	packetErrorRate:histogram
field count 49303
field mean 0.19796424726919
field stddev 0.38943379746376
field sum 9760.2312831129
field sqrsum 9409.2532090271
field min 0
field max 1
attr source  packetErrorRate
attr title  "Packet error rate, histogram"
bin	-INF	0
bin	-0.5	0
bin	-0.43333333333333	0
bin	-0.36666666666667	0
bin	-0.3	0
bin	-0.23333333333333	0
bin	-0.16666666666667	0
bin	-0.1	0
bin	-0.033333333333333	38136
bin	0.033333333333333	551
bin	0.1	301
bin	0.16666666666667	175
bin	0.23333333333333	133
bin	0.3	129
bin	0.36666666666667	120
bin	0.43333333333333	119
bin	0.5	93
bin	0.56666666666667	80
bin	0.63333333333333	83
bin	0.7	85
bin	0.76666666666667	132
bin	0.83333333333333	137
bin	0.9	186
bin	0.96666666666667	8843
bin	1.0333333333333	0
bin	1.1	0
bin	1.1666666666667	0
bin	1.2333333333333	0
bin	1.3	0
bin	1.3666666666667	0
bin	1.4333333333333	0
bin	1.5	0
statistic scenarioPRJP1.node[32].wlan.radio 	minSNIR:histogram
field count 49303
field mean 4889.7921876329
field stddev 44246.527581344
field sum 241081424.22687
field sqrsum 97700085083400
field min 0.00016716817048271
field max 753239.71923443
attr source  minSNIR
attr title  "Min SNIR, histogram"
bin	-INF	0
bin	-358441.39843943	0
bin	-310649.09081791	0
bin	-262856.78319638	0
bin	-215064.47557486	0
bin	-167272.16795333	0
bin	-119479.86033181	0
bin	-71687.552710283	0
bin	-23895.245088758	47979
bin	23897.062532766	794
bin	71689.370154291	162
bin	119481.67777582	80
bin	167273.98539734	65
bin	215066.29301886	23
bin	262858.60064039	17
bin	310650.90826191	7
bin	358443.21588344	4
bin	406235.52350496	12
bin	454027.83112649	7
bin	501820.13874801	3
bin	549612.44636954	3
bin	597404.75399106	7
bin	645197.06161258	2
bin	692989.36923411	24
bin	740781.67685563	114
bin	788573.98447716	0
bin	836366.29209868	0
bin	884158.59972021	0
bin	931950.90734173	0
bin	979743.21496326	0
bin	1027535.5225848	0
bin	1075327.8302063	0
scalar scenarioPRJP1.node[32].lo0.lo 	droppedPkBitError:count 	0
attr interpolationmode  none
attr source  dropPkBitError
attr title  "packets dropped/bit error, count"
scalar scenarioPRJP1.node[32].lo0.lo 	droppedPkBitError:sum(packetBytes) 	0
attr interpolationmode  none
attr source  dropPkBitError
attr title  "packets dropped/bit error, sum(packetBytes)"
scalar scenarioPRJP1.node[32].lo0.lo 	rcvdPkFromHL:count 	0
attr interpolationmode  none
attr source  packetReceivedFromUpper
attr title  "packets received from higher layer, count"
scalar scenarioPRJP1.node[32].lo0.lo 	rcvdPkFromHL:sum(packetBytes) 	0
attr interpolationmode  none
attr source  packetReceivedFromUpper
attr title  "packets received from higher layer, sum(packetBytes)"
scalar scenarioPRJP1.node[32].lo0.lo 	passedUpPk:count 	0
attr interpolationmode  none
attr source  packetSentToUpper
attr title  "packets passed to higher layer, count"
scalar scenarioPRJP1.node[32].lo0.lo 	passedUpPk:sum(packetBytes) 	0
attr interpolationmode  none
attr source  packetSentToUpper
attr title  "packets passed to higher layer, sum(packetBytes)"
scalar scenarioPRJP1.node[80].app 	"Total sent" 	975
scalar scenarioPRJP1.node[80].app 	"Total received" 	151
scalar scenarioPRJP1.node[80].app 	"Total deleted" 	24
scalar scenarioPRJP1.node[80].app 	dropPk:count 	24
attr interpolationmode  none
attr source  dropPk
attr title  "packets dropped, count"
scalar scenarioPRJP1.node[80].app 	dropPk:sum(packetBytes) 	12288
attr interpolationmode  none
attr source  dropPk
attr title  "packets dropped, sum(packetBytes)"
scalar scenarioPRJP1.node[80].app 	outOfOrderPk:count 	0
attr interpolationmode  none
attr source  outOfOrderPk
attr title  "packets received out of order, count"
scalar scenarioPRJP1.node[80].app 	outOfOrderPk:sum(packetBytes) 	0
attr interpolationmode  none
attr source  outOfOrderPk
attr title  "packets received out of order, sum(packetBytes)"
scalar scenarioPRJP1.node[80].app 	rcvdPk:count 	151
attr interpolationmode  none
attr source  rcvdPk
attr title  "packets received, count"
scalar scenarioPRJP1.node[80].app 	rcvdPk:sum(packetBytes) 	77312
attr interpolationmode  none
attr source  rcvdPk
attr title  "packets received, sum(packetBytes)"
statistic scenarioPRJP1.node[80].app 	endToEndDelay:histogram
field count 151
field mean 4.1167098998943
field stddev 5.4713474194608
field sum 621.62319488403
field sqrsum 7049.388748049
field min 0.000945045371
field max 19.893580206941
attr interpolationmode  none
attr source  messageAge(rcvdPk)
attr title  "delay, histogram"
attr unit  s
bin	-INF	0
bin	-9.945372535414	0
bin	-8.619196857976	0
bin	-7.293021180538	0
bin	-5.9668455031	0
bin	-4.640669825662	0
bin	-3.314494148224	0
bin	-1.988318470786	0
bin	-0.662142793348	73
bin	0.66403288409	10
bin	1.990208561528	12
bin	3.316384238966	8
bin	4.642559916404	1
bin	5.968735593842	5
bin	7.29491127128	5
bin	8.621086948718	9
bin	9.947262626156	9
bin	11.273438303594	5
bin	12.599613981032	2
bin	13.92578965847	3
bin	15.251965335908	4
bin	16.578141013346	1
bin	17.904316690784	2
bin	19.230492368222	2
bin	20.55666804566	0
bin	21.882843723098	0
bin	23.209019400536	0
bin	24.535195077974	0
bin	25.861370755412	0
bin	27.18754643285	0
bin	28.513722110288	0
bin	29.839897787726	0
scalar scenarioPRJP1.node[80].app 	sentPk:count 	975
attr interpolationmode  none
attr source  sentPk
attr title  "packets sent, count"
scalar scenarioPRJP1.node[80].app 	sentPk:sum(packetBytes) 	499200
attr interpolationmode  none
attr source  sentPk
attr title  "packets sent, sum(packetBytes)"
scalar scenarioPRJP1.node[80].udp 	droppedPkBadChecksum:count 	0
attr interpolationmode  none
attr title  "packets dropped (checksum error), count"
scalar scenarioPRJP1.node[80].udp 	droppedPkWrongPort:count 	0
attr interpolationmode  none
attr title  "packets dropped (wrong port), count"
scalar scenarioPRJP1.node[80].udp 	passedUpPk:count 	175
attr interpolationmode  none
attr title  "packets passed up, count"
scalar scenarioPRJP1.node[80].udp 	rcvdPk:count 	175
attr interpolationmode  none
attr source  rcvdPk
attr title  "packets received, count"
scalar scenarioPRJP1.node[80].udp 	rcvdPk:sum(packetBytes) 	91000
attr interpolationmode  none
attr source  rcvdPk
attr title  "packets received, sum(packetBytes)"
scalar scenarioPRJP1.node[80].udp 	sentPk:count 	975
attr interpolationmode  none
attr source  sentPk
attr title  "packets sent, count"
scalar scenarioPRJP1.node[80].udp 	sentPk:sum(packetBytes) 	507000
attr interpolationmode  none
attr source  sentPk
attr title  "packets sent, sum(packetBytes)"
scalar scenarioPRJP1.node[80].networkLayer.arp 	failedARPResolution:count 	2
attr title  "ARP failed resolutions, count"
scalar scenarioPRJP1.node[80].networkLayer.arp 	completedARPResolution:count 	252
attr title  "ARP completed resolutions, count"
scalar scenarioPRJP1.node[80].networkLayer.arp 	initiatedARPResolution:count 	29
attr title  "ARP initiated resolutions, count"
scalar scenarioPRJP1.node[80].networkLayer.arp 	sentReply:count 	19
attr title  "ARP replies sent, count"
scalar scenarioPRJP1.node[80].networkLayer.arp 	sentReq:count 	40
attr title  "ARP request sent, count"
scalar scenarioPRJP1.node[80].mobility 	startTime 	9.6
scalar scenarioPRJP1.node[80].mobility 	totalTime 	365
scalar scenarioPRJP1.node[80].mobility 	stopTime 	374.7
scalar scenarioPRJP1.node[80].mobility 	minSpeed 	2.4758289508965e-13
scalar scenarioPRJP1.node[80].mobility 	maxSpeed 	14.509909860458
scalar scenarioPRJP1.node[80].mobility 	totalDistance 	2206.7824388302
scalar scenarioPRJP1.node[80].mobility 	totalCO2Emission 	733.73558984686
scalar scenarioPRJP1.node[80].wlan.mgmt 	dataQueueLen:max 	17
attr interpolationmode  sample-hold
attr title  "data queue length, max"
scalar scenarioPRJP1.node[80].wlan.mgmt 	dataQueueLen:timeavg 	0
attr interpolationmode  sample-hold
attr title  "data queue length, timeavg"
scalar scenarioPRJP1.node[80].wlan.mgmt 	dropPkByQueue:count 	0
attr interpolationmode  none
attr source  dropPkByQueue
attr title  "packets dropped by queue, count"
scalar scenarioPRJP1.node[80].wlan.mgmt 	dropPkByQueue:sum(packetBytes) 	0
attr interpolationmode  none
attr source  dropPkByQueue
attr title  "packets dropped by queue, sum(packetBytes)"
scalar scenarioPRJP1.node[80].wlan.mac 	"number of received packets" 	1686
scalar scenarioPRJP1.node[80].wlan.mac 	"number of collisions" 	16906
scalar scenarioPRJP1.node[80].wlan.mac 	"number of internal collisions" 	0
scalar scenarioPRJP1.node[80].wlan.mac 	"number of retry for AC 0" 	3369
scalar scenarioPRJP1.node[80].wlan.mac 	"number of retry for AC 1" 	0
scalar scenarioPRJP1.node[80].wlan.mac 	"number of retry for AC 2" 	0
scalar scenarioPRJP1.node[80].wlan.mac 	"number of retry for AC 3" 	0
scalar scenarioPRJP1.node[80].wlan.mac 	"sent and received bits" 	7906472
scalar scenarioPRJP1.node[80].wlan.mac 	"sent packet within AC 0" 	398
scalar scenarioPRJP1.node[80].wlan.mac 	"sent packet within AC 1" 	0
scalar scenarioPRJP1.node[80].wlan.mac 	"sent packet within AC 2" 	0
scalar scenarioPRJP1.node[80].wlan.mac 	"sent packet within AC 3" 	0
scalar scenarioPRJP1.node[80].wlan.mac 	"sent in TXOP " 	0
scalar scenarioPRJP1.node[80].wlan.mac 	"sentWithoutRetry AC 0" 	309
scalar scenarioPRJP1.node[80].wlan.mac 	"sentWithoutRetry AC 1" 	0
scalar scenarioPRJP1.node[80].wlan.mac 	"sentWithoutRetry AC 2" 	0
scalar scenarioPRJP1.node[80].wlan.mac 	"sentWithoutRetry AC 3" 	0
scalar scenarioPRJP1.node[80].wlan.mac 	"numGivenUp AC 0" 	526
scalar scenarioPRJP1.node[80].wlan.mac 	"numGivenUp AC 1" 	0
scalar scenarioPRJP1.node[80].wlan.mac 	"numGivenUp AC 2" 	0
scalar scenarioPRJP1.node[80].wlan.mac 	"numGivenUp AC 3" 	0
scalar scenarioPRJP1.node[80].wlan.mac 	"numDropped AC 0" 	0
scalar scenarioPRJP1.node[80].wlan.mac 	"numDropped AC 1" 	0
scalar scenarioPRJP1.node[80].wlan.mac 	"numDropped AC 2" 	0
scalar scenarioPRJP1.node[80].wlan.mac 	"numDropped AC 3" 	0
scalar scenarioPRJP1.node[80].wlan.mac 	rcvdPkFromLL:count 	68203
attr interpolationmode  none
attr source  packetReceivedFromLower
attr title  "packets received from lower layer, count"
scalar scenarioPRJP1.node[80].wlan.mac 	rcvdPkFromLL:sum(packetBytes) 	20585652
attr interpolationmode  none
attr source  packetReceivedFromLower
attr title  "packets received from lower layer, sum(packetBytes)"
scalar scenarioPRJP1.node[80].wlan.mac 	sentDownPk:count 	11649
attr interpolationmode  none
attr source  packetSentToLower
attr title  "packets sent to lower layer, count"
scalar scenarioPRJP1.node[80].wlan.mac 	sentDownPk:sum(packetBytes) 	3178041
attr interpolationmode  none
attr source  packetSentToLower
attr title  "packets sent to lower layer, sum(packetBytes)"
scalar scenarioPRJP1.node[80].wlan.mac 	rcvdPkFromHL:count 	6594
attr interpolationmode  none
attr source  packetReceivedFromUpper
attr title  "packets received from higher layer, count"
scalar scenarioPRJP1.node[80].wlan.mac 	rcvdPkFromHL:sum(packetBytes) 	1280229
attr interpolationmode  none
attr source  packetReceivedFromUpper
attr title  "packets received from higher layer, sum(packetBytes)"
scalar scenarioPRJP1.node[80].wlan.mac 	passedUpPk:count 	23457
attr interpolationmode  none
attr source  packetSentToUpper
attr title  "packets passed to higher layer, count"
scalar scenarioPRJP1.node[80].wlan.mac 	passedUpPk:sum(packetBytes) 	3485894
attr interpolationmode  none
attr source  packetSentToUpper
attr title  "packets passed to higher layer, sum(packetBytes)"
statistic scenarioPRJP1.node[80].wlan.radio 	radioChannel:histogram
field count 1
field mean 3
field stddev nan
field sum 3
field sqrsum 9
field min 3
field max 3
attr interpolationmode  sample-hold
attr source  radioChannelChanged
attr title  "Radio channel, histogram"
bin	-INF	0
bin	2	0
bin	3	1
bin	4	0
scalar scenarioPRJP1.node[80].wlan.radio 	transmissionState:count 	46596
attr interpolationmode  sample-hold
attr source  transmissionStateChanged
attr title  "Radio transmission state, count"
scalar scenarioPRJP1.node[80].wlan.radio 	receptionState:count 	164473
attr interpolationmode  sample-hold
attr source  receptionStateChanged
attr title  "Radio reception state, count"
scalar scenarioPRJP1.node[80].wlan.radio 	radioMode:count 	23300
attr interpolationmode  sample-hold
attr source  radioModeChanged
attr title  "Radio mode, count"
statistic scenarioPRJP1.node[80].wlan.radio 	symbolErrorRate:histogram
field count 0
field mean nan
field stddev nan
field sum 0
field sqrsum 0
field min nan
field max nan
attr source  symbolErrorRate
attr title  "Symbol error rate, histogram"
bin	-INF	0
bin	-0.5	0
bin	-0.46666666666667	0
bin	-0.43333333333333	0
bin	-0.4	0
bin	-0.36666666666667	0
bin	-0.33333333333333	0
bin	-0.3	0
bin	-0.26666666666667	0
bin	-0.23333333333333	0
bin	-0.2	0
bin	-0.16666666666667	0
bin	-0.13333333333333	0
bin	-0.1	0
bin	-0.066666666666667	0
bin	-0.033333333333333	0
bin	0	0
bin	0.033333333333333	0
bin	0.066666666666667	0
bin	0.1	0
bin	0.13333333333333	0
bin	0.16666666666667	0
bin	0.2	0
bin	0.23333333333333	0
bin	0.26666666666667	0
bin	0.3	0
bin	0.33333333333333	0
bin	0.36666666666667	0
bin	0.4	0
bin	0.43333333333333	0
bin	0.46666666666667	0
bin	0.5	0
[...]
scalar scenarioPRJP1.node[74].wlan.mac 	passedUpPk:sum(packetBytes) 	7934989
attr interpolationmode  none
attr source  packetSentToUpper
attr title  "packets passed to higher layer, sum(packetBytes)"
statistic scenarioPRJP1.node[74].wlan.radio 	radioChannel:histogram
field count 1
field mean 3
field stddev nan
field sum 3
field sqrsum 9
field min 3
field max 3
attr interpolationmode  sample-hold
attr source  radioChannelChanged
attr title  "Radio channel, histogram"
bin	-INF	0
bin	2	0
bin	3	1
bin	4	0
scalar scenarioPRJP1.node[74].wlan.radio 	transmissionState:count 	127848
attr interpolationmode  sample-hold
attr source  transmissionStateChanged
attr title  "Radio transmission state, count"
scalar scenarioPRJP1.node[74].wlan.radio 	receptionState:count 	392348
attr interpolationmode  sample-hold
attr source  receptionStateChanged
attr title  "Radio reception state, count"
scalar scenarioPRJP1.node[74].wlan.radio 	radioMode:count 	63926
attr interpolationmode  sample-hold
attr source  radioModeChanged
attr title  "Radio mode, count"
statistic scenarioPRJP1.node[74].wlan.radio 	symbolErrorRate:histogram
field count 0
field mean nan
field stddev nan
field sum 0
field sqrsum 0
field min nan
field max nan
attr source  symbolErrorRate
attr title  "Symbol error rate, histogram"
bin	-INF	0
bin	-0.5	0
bin	-0.46666666666667	0
bin	-0.43333333333333	0
bin	-0.4	0
bin	-0.36666666666667	0
bin	-0.33333333333333	0
bin	-0.3	0
bin	-0.26666666666667	0
bin	-0.23333333333333	0
bin	-0.2	0
bin	-0.16666666666667	0
bin	-0.13333333333333	0
bin	-0.1	0
bin	-0.066666666666667	0
bin	-0.033333333333333	0
bin	0	0
bin	0.033333333333333	0
bin	0.066666666666667	0
bin	0.1	0
bin	0.13333333333333	0
bin	0.16666666666667	0
bin	0.2	0
bin	0.23333333333333	0
bin	0.26666666666667	0
bin	0.3	0
bin	0.33333333333333	0
bin	0.36666666666667	0
bin	0.4	0
bin	0.43333333333333	0
bin	0.46666666666667	0
bin	0.5	0
statistic scenarioPRJP1.node[74].wlan.radio 	bitErrorRate:histogram
field count 0
field mean nan
field stddev nan
field sum 0
field sqrsum 0
field min nan
field max nan
attr source  bitErrorRate
attr title  "Bit error rate, histogram"
bin	-INF	0
bin	-0.5	0
bin	-0.46666666666667	0
bin	-0.43333333333333	0
bin	-0.4	0
bin	-0.36666666666667	0
bin	-0.33333333333333	0
bin	-0.3	0
bin	-0.26666666666667	0
bin	-0.23333333333333	0
bin	-0.2	0
bin	-0.16666666666667	0
bin	-0.13333333333333	0
bin	-0.1	0
bin	-0.066666666666667	0
bin	-0.033333333333333	0
bin	0	0
bin	0.033333333333333	0
bin	0.066666666666667	0
bin	0.1	0
bin	0.13333333333333	0
bin	0.16666666666667	0
bin	0.2	0
bin	0.23333333333333	0
bin	0.26666666666667	0
bin	0.3	0
bin	0.33333333333333	0
bin	0.36666666666667	0
bin	0.4	0
bin	0.43333333333333	0
bin	0.46666666666667	0
bin	0.5	0
statistic scenarioPRJP1.node[74].wlan.radio 	packetErrorRate:histogram
field count 158931
field mean 0.21985464785231
field stddev 0.40409048813351
field sum 34941.719037816
field sqrsum 33633.639589228
field min 0
field max 1
attr source  packetErrorRate
attr title  "Packet error rate, histogram"
bin	-INF	0
bin	-0.19024846419792	0
bin	-0.16488200230487	0
bin	-0.13951554041181	0
bin	-0.11414907851875	0
bin	-0.088782616625698	0
bin	-0.063416154732642	0
bin	-0.038049692839585	0
bin	-0.012683230946528	116722
bin	0.012683230946528	2073
bin	0.038049692839585	1053
bin	0.063416154732641	741
bin	0.088782616625698	532
bin	0.11414907851875	402
bin	0.13951554041181	353
bin	0.16488200230487	306
bin	0.19024846419792	262
bin	0.21561492609098	256
bin	0.24098138798404	198
bin	0.26634784987709	202
bin	0.29171431177015	187
bin	0.31708077366321	178
bin	0.34244723555626	181
bin	0.36781369744932	156
bin	0.39318015934238	146
bin	0.41854662123543	148
bin	0.44391308312849	135
bin	0.46927954502155	117
bin	0.4946460069146	131
bin	0.52001246880766	134
bin	0.54537893070072	161
bin	0.57074539259377	34157
statistic scenarioPRJP1.node[74].wlan.radio 	minSNIR:histogram
field count 158931
field mean 1960.1590125268
field stddev 25372.480508529
field sum 311530032.01989
field sqrsum 1.0292386498399e+14
field min 0.00020091770425483
field max 1507967.0991953
attr source  minSNIR
attr title  "Min SNIR, histogram"
bin	-INF	0
bin	-43455.269796212	0
bin	-37660.979778587	0
bin	-31866.689760963	0
bin	-26072.399743338	0
bin	-20278.109725714	0
bin	-14483.819708089	0
bin	-8689.5296904648	0
bin	-2895.2396728404	151342
bin	2899.0503447841	3867
bin	8693.3403624085	1423
bin	14487.630380033	551
bin	20281.920397657	276
bin	26076.210415282	179
bin	31870.500432906	119
bin	37664.790450531	97
bin	43459.080468155	69
bin	49253.37048578	63
bin	55047.660503404	53
bin	60841.950521029	72
bin	66636.240538653	51
bin	72430.530556278	23
bin	78224.820573902	58
bin	84019.110591526	30
bin	89813.400609151	24
bin	95607.690626775	17
bin	101401.9806444	19
bin	107196.27066202	20
bin	112990.56067965	14
bin	118784.85069727	24
bin	124579.1407149	11
bin	130373.43073252	529
scalar scenarioPRJP1.node[74].lo0.lo 	droppedPkBitError:count 	0
attr interpolationmode  none
attr source  dropPkBitError
attr title  "packets dropped/bit error, count"
scalar scenarioPRJP1.node[74].lo0.lo 	droppedPkBitError:sum(packetBytes) 	0
attr interpolationmode  none
attr source  dropPkBitError
attr title  "packets dropped/bit error, sum(packetBytes)"
scalar scenarioPRJP1.node[74].lo0.lo 	rcvdPkFromHL:count 	0
attr interpolationmode  none
attr source  packetReceivedFromUpper
attr title  "packets received from higher layer, count"
scalar scenarioPRJP1.node[74].lo0.lo 	rcvdPkFromHL:sum(packetBytes) 	0
attr interpolationmode  none
attr source  packetReceivedFromUpper
attr title  "packets received from higher layer, sum(packetBytes)"
scalar scenarioPRJP1.node[74].lo0.lo 	passedUpPk:count 	0
attr interpolationmode  none
attr source  packetSentToUpper
attr title  "packets passed to higher layer, count"
scalar scenarioPRJP1.node[74].lo0.lo 	passedUpPk:sum(packetBytes) 	0
attr interpolationmode  none
attr source  packetSentToUpper
attr title  "packets passed to higher layer, sum(packetBytes)"
scalar scenarioPRJP1.node[94].app 	"Total sent" 	2626
scalar scenarioPRJP1.node[94].app 	"Total received" 	384
scalar scenarioPRJP1.node[94].app 	"Total deleted" 	96
scalar scenarioPRJP1.node[94].app 	dropPk:count 	96
attr interpolationmode  none
attr source  dropPk
attr title  "packets dropped, count"
scalar scenarioPRJP1.node[94].app 	dropPk:sum(packetBytes) 	49152
attr interpolationmode  none
attr source  dropPk
attr title  "packets dropped, sum(packetBytes)"
scalar scenarioPRJP1.node[94].app 	outOfOrderPk:count 	0
attr interpolationmode  none
attr source  outOfOrderPk
attr title  "packets received out of order, count"
scalar scenarioPRJP1.node[94].app 	outOfOrderPk:sum(packetBytes) 	0
attr interpolationmode  none
attr source  outOfOrderPk
attr title  "packets received out of order, sum(packetBytes)"
scalar scenarioPRJP1.node[94].app 	rcvdPk:count 	384
attr interpolationmode  none
attr source  rcvdPk
attr title  "packets received, count"
scalar scenarioPRJP1.node[94].app 	rcvdPk:sum(packetBytes) 	196608
attr interpolationmode  none
attr source  rcvdPk
attr title  "packets received, sum(packetBytes)"
statistic scenarioPRJP1.node[94].app 	endToEndDelay:histogram
field count 384
field mean 4.9941731335307
field stddev 5.7672703193533
field sum 1917.7624832758
field sqrsum 22316.756727146
field min 0.000945022687
field max 19.934307698793
attr interpolationmode  none
attr source  messageAge(rcvdPk)
attr title  "delay, histogram"
attr unit  s
bin	-INF	0
bin	-9.965716272072	0
bin	-8.6368263178113	0
bin	-7.3079363635507	0
bin	-5.97904640929	0
bin	-4.6501564550293	0
bin	-3.3212665007687	0
bin	-1.992376546508	0
bin	-0.66348659224733	147
bin	0.66540336201333	40
bin	1.994293316274	12
bin	3.3231832705347	26
bin	4.6520732247953	26
bin	5.980963179056	21
bin	7.3098531333167	17
bin	8.6387430875773	13
bin	9.967633041838	12
bin	11.296522996099	14
bin	12.625412950359	12
bin	13.95430290462	12
bin	15.283192858881	11
bin	16.612082813141	9
bin	17.940972767402	6
bin	19.269862721663	6
bin	20.598752675923	0
bin	21.927642630184	0
bin	23.256532584445	0
bin	24.585422538705	0
bin	25.914312492966	0
bin	27.243202447227	0
bin	28.572092401487	0
bin	29.900982355748	0
scalar scenarioPRJP1.node[94].app 	sentPk:count 	2626
attr interpolationmode  none
attr source  sentPk
attr title  "packets sent, count"
scalar scenarioPRJP1.node[94].app 	sentPk:sum(packetBytes) 	1344512
attr interpolationmode  none
attr source  sentPk
attr title  "packets sent, sum(packetBytes)"
scalar scenarioPRJP1.node[94].udp 	droppedPkBadChecksum:count 	0
attr interpolationmode  none
attr title  "packets dropped (checksum error), count"
scalar scenarioPRJP1.node[94].udp 	droppedPkWrongPort:count 	0
attr interpolationmode  none
attr title  "packets dropped (wrong port), count"
scalar scenarioPRJP1.node[94].udp 	passedUpPk:count 	480
attr interpolationmode  none
attr title  "packets passed up, count"
scalar scenarioPRJP1.node[94].udp 	rcvdPk:count 	480
attr interpolationmode  none
attr source  rcvdPk
attr title  "packets received, count"
scalar scenarioPRJP1.node[94].udp 	rcvdPk:sum(packetBytes) 	249600
attr interpolationmode  none
attr source  rcvdPk
attr title  "packets received, sum(packetBytes)"
scalar scenarioPRJP1.node[94].udp 	sentPk:count 	2626
attr interpolationmode  none
attr source  sentPk
attr title  "packets sent, count"
scalar scenarioPRJP1.node[94].udp 	sentPk:sum(packetBytes) 	1365520
attr interpolationmode  none
attr source  sentPk
attr title  "packets sent, sum(packetBytes)"
scalar scenarioPRJP1.node[94].networkLayer.arp 	failedARPResolution:count 	9
attr title  "ARP failed resolutions, count"
scalar scenarioPRJP1.node[94].networkLayer.arp 	completedARPResolution:count 	522
attr title  "ARP completed resolutions, count"
scalar scenarioPRJP1.node[94].networkLayer.arp 	initiatedARPResolution:count 	84
attr title  "ARP initiated resolutions, count"
scalar scenarioPRJP1.node[94].networkLayer.arp 	sentReply:count 	52
attr title  "ARP replies sent, count"
scalar scenarioPRJP1.node[94].networkLayer.arp 	sentReq:count 	138
attr title  "ARP request sent, count"
scalar scenarioPRJP1.node[94].mobility 	startTime 	9.7
scalar scenarioPRJP1.node[94].mobility 	totalTime 	940.3
scalar scenarioPRJP1.node[94].mobility 	stopTime 	950
scalar scenarioPRJP1.node[94].mobility 	minSpeed 	2.4755607675056e-13
scalar scenarioPRJP1.node[94].mobility 	maxSpeed 	15.057066090911
scalar scenarioPRJP1.node[94].mobility 	totalDistance 	8550.0895317947
scalar scenarioPRJP1.node[94].mobility 	totalCO2Emission 	2158.7750534945
scalar scenarioPRJP1.node[94].wlan.mgmt 	dataQueueLen:max 	28
attr interpolationmode  sample-hold
attr title  "data queue length, max"
scalar scenarioPRJP1.node[94].wlan.mgmt 	dataQueueLen:timeavg 	0
attr interpolationmode  sample-hold
attr title  "data queue length, timeavg"
scalar scenarioPRJP1.node[94].wlan.mgmt 	dropPkByQueue:count 	0
attr interpolationmode  none
attr source  dropPkByQueue
attr title  "packets dropped by queue, count"
scalar scenarioPRJP1.node[94].wlan.mgmt 	dropPkByQueue:sum(packetBytes) 	0
attr interpolationmode  none
attr source  dropPkByQueue
attr title  "packets dropped by queue, sum(packetBytes)"
scalar scenarioPRJP1.node[94].wlan.mac 	"number of received packets" 	6798
scalar scenarioPRJP1.node[94].wlan.mac 	"number of collisions" 	42125
scalar scenarioPRJP1.node[94].wlan.mac 	"number of internal collisions" 	0
scalar scenarioPRJP1.node[94].wlan.mac 	"number of retry for AC 0" 	13480
scalar scenarioPRJP1.node[94].wlan.mac 	"number of retry for AC 1" 	0
scalar scenarioPRJP1.node[94].wlan.mac 	"number of retry for AC 2" 	0
scalar scenarioPRJP1.node[94].wlan.mac 	"number of retry for AC 3" 	0
scalar scenarioPRJP1.node[94].wlan.mac 	"sent and received bits" 	19691888
scalar scenarioPRJP1.node[94].wlan.mac 	"sent packet within AC 0" 	852
scalar scenarioPRJP1.node[94].wlan.mac 	"sent packet within AC 1" 	0
scalar scenarioPRJP1.node[94].wlan.mac 	"sent packet within AC 2" 	0
scalar scenarioPRJP1.node[94].wlan.mac 	"sent packet within AC 3" 	0
scalar scenarioPRJP1.node[94].wlan.mac 	"sent in TXOP " 	0
scalar scenarioPRJP1.node[94].wlan.mac 	"sentWithoutRetry AC 0" 	684
scalar scenarioPRJP1.node[94].wlan.mac 	"sentWithoutRetry AC 1" 	0
scalar scenarioPRJP1.node[94].wlan.mac 	"sentWithoutRetry AC 2" 	0
scalar scenarioPRJP1.node[94].wlan.mac 	"sentWithoutRetry AC 3" 	0
scalar scenarioPRJP1.node[94].wlan.mac 	"numGivenUp AC 0" 	2170
scalar scenarioPRJP1.node[94].wlan.mac 	"numGivenUp AC 1" 	0
scalar scenarioPRJP1.node[94].wlan.mac 	"numGivenUp AC 2" 	0
scalar scenarioPRJP1.node[94].wlan.mac 	"numGivenUp AC 3" 	0
scalar scenarioPRJP1.node[94].wlan.mac 	"numDropped AC 0" 	0
scalar scenarioPRJP1.node[94].wlan.mac 	"numDropped AC 1" 	0
scalar scenarioPRJP1.node[94].wlan.mac 	"numDropped AC 2" 	0
scalar scenarioPRJP1.node[94].wlan.mac 	"numDropped AC 3" 	0
scalar scenarioPRJP1.node[94].wlan.mac 	rcvdPkFromLL:count 	154618
attr interpolationmode  none
attr source  packetReceivedFromLower
attr title  "packets received from lower layer, count"
scalar scenarioPRJP1.node[94].wlan.mac 	rcvdPkFromLL:sum(packetBytes) 	46907389
attr interpolationmode  none
attr source  packetReceivedFromLower
attr title  "packets received from lower layer, sum(packetBytes)"
scalar scenarioPRJP1.node[94].wlan.mac 	sentDownPk:count 	37357
attr interpolationmode  none
attr source  packetSentToLower
attr title  "packets sent to lower layer, count"
scalar scenarioPRJP1.node[94].wlan.mac 	sentDownPk:sum(packetBytes) 	11299274
attr interpolationmode  none
attr source  packetSentToLower
attr title  "packets sent to lower layer, sum(packetBytes)"
scalar scenarioPRJP1.node[94].wlan.mac 	rcvdPkFromHL:count 	17080
attr interpolationmode  none
attr source  packetReceivedFromUpper
attr title  "packets received from higher layer, count"
scalar scenarioPRJP1.node[94].wlan.mac 	rcvdPkFromHL:sum(packetBytes) 	3673016
attr interpolationmode  none
attr source  packetReceivedFromUpper
attr title  "packets received from higher layer, sum(packetBytes)"
scalar scenarioPRJP1.node[94].wlan.mac 	passedUpPk:count 	44729
attr interpolationmode  none
attr source  packetSentToUpper
attr title  "packets passed to higher layer, count"
scalar scenarioPRJP1.node[94].wlan.mac 	passedUpPk:sum(packetBytes) 	7444585
attr interpolationmode  none
attr source  packetSentToUpper
attr title  "packets passed to higher layer, sum(packetBytes)"
statistic scenarioPRJP1.node[94].wlan.radio 	radioChannel:histogram
field count 1
field mean 3
field stddev nan
field sum 3
field sqrsum 9
field min 3
field max 3
attr interpolationmode  sample-hold
attr source  radioChannelChanged
attr title  "Radio channel, histogram"
bin	-INF	0
bin	2	0
bin	3	1
bin	4	0
scalar scenarioPRJP1.node[94].wlan.radio 	transmissionState:count 	149428
attr interpolationmode  sample-hold
attr source  transmissionStateChanged
attr title  "Radio transmission state, count"
scalar scenarioPRJP1.node[94].wlan.radio 	receptionState:count 	396446
attr interpolationmode  sample-hold
attr source  receptionStateChanged
attr title  "Radio reception state, count"
scalar scenarioPRJP1.node[94].wlan.radio 	radioMode:count 	74716
attr interpolationmode  sample-hold
attr source  radioModeChanged
attr title  "Radio mode, count"
statistic scenarioPRJP1.node[94].wlan.radio 	symbolErrorRate:histogram
field count 0
field mean nan
field stddev nan
field sum 0
field sqrsum 0
field min nan
field max nan
attr source  symbolErrorRate
attr title  "Symbol error rate, histogram"
bin	-INF	0
bin	-0.5	0
bin	-0.46666666666667	0
bin	-0.43333333333333	0
bin	-0.4	0
bin	-0.36666666666667	0
bin	-0.33333333333333	0
bin	-0.3	0
bin	-0.26666666666667	0
bin	-0.23333333333333	0
bin	-0.2	0
bin	-0.16666666666667	0
bin	-0.13333333333333	0
bin	-0.1	0
bin	-0.066666666666667	0
bin	-0.033333333333333	0
bin	0	0
bin	0.033333333333333	0
bin	0.066666666666667	0
bin	0.1	0
bin	0.13333333333333	0
bin	0.16666666666667	0
bin	0.2	0
bin	0.23333333333333	0
bin	0.26666666666667	0
bin	0.3	0
bin	0.33333333333333	0
bin	0.36666666666667	0
bin	0.4	0
bin	0.43333333333333	0
bin	0.46666666666667	0
bin	0.5	0
statistic scenarioPRJP1.node[94].wlan.radio 	bitErrorRate:histogram
field count 0
field mean nan
field stddev nan
field sum 0
field sqrsum 0
field min nan
field max nan
attr source  bitErrorRate
attr title  "Bit error rate, histogram"
bin	-INF	0
bin	-0.5	0
bin	-0.46666666666667	0
bin	-0.43333333333333	0
bin	-0.4	0
bin	-0.36666666666667	0
bin	-0.33333333333333	0
bin	-0.3	0
bin	-0.26666666666667	0
bin	-0.23333333333333	0
bin	-0.2	0
bin	-0.16666666666667	0
bin	-0.13333333333333	0
bin	-0.1	0
bin	-0.066666666666667	0
bin	-0.033333333333333	0
bin	0	0
bin	0.033333333333333	0
bin	0.066666666666667	0
bin	0.1	0
bin	0.13333333333333	0
bin	0.16666666666667	0
bin	0.2	0
bin	0.23333333333333	0
bin	0.26666666666667	0
bin	0.3	0
bin	0.33333333333333	0
bin	0.36666666666667	0
bin	0.4	0
bin	0.43333333333333	0
bin	0.46666666666667	0
bin	0.5	0
statistic scenarioPRJP1.node[94].wlan.radio 	packetErrorRate:histogram
field count 154618
field mean 0.24527572832728
field stddev 0.41956071579969
field sum 37924.042562507
field sqrsum 36519.262320803
field min 0
field max 1
attr source  packetErrorRate
attr title  "Packet error rate, histogram"
bin	-INF	0
bin	-0.5	0
bin	-0.43333333333333	0
bin	-0.36666666666667	0
bin	-0.3	0
bin	-0.23333333333333	0
bin	-0.16666666666667	0
bin	-0.1	0
bin	-0.033333333333333	110960
bin	0.033333333333333	2357
bin	0.1	1080
bin	0.16666666666667	785
bin	0.23333333333333	604
bin	0.3	466
bin	0.36666666666667	460
bin	0.43333333333333	417
bin	0.5	363
bin	0.56666666666667	365
bin	0.63333333333333	405
bin	0.7	406
bin	0.76666666666667	409
bin	0.83333333333333	486
bin	0.9	731
bin	0.96666666666667	34324
bin	1.0333333333333	0
bin	1.1	0
bin	1.1666666666667	0
bin	1.2333333333333	0
bin	1.3	0
bin	1.3666666666667	0
bin	1.4333333333333	0
bin	1.5	0
statistic scenarioPRJP1.node[94].wlan.radio 	minSNIR:histogram
field count 154618
field mean 1926.5221179472
field stddev 26413.33155584
field sum 297874996.83276
field sqrsum 1.0844459042686e+14
field min 0.00026693121787533
field max 753239.71923443
attr source  minSNIR
attr title  "Min SNIR, histogram"
bin	-INF	0
bin	-21465.540520048	0
bin	-18603.358425715	0
bin	-15741.176331383	0
bin	-12878.99423705	0
bin	-10016.812142718	0
bin	-7154.6300483854	0
bin	-4292.447954053	0
bin	-1430.2658597206	145762
bin	1431.9162346118	3624
bin	4294.0983289443	1322
bin	7156.2804232767	680
bin	10018.462517609	530
bin	12880.644611942	459
bin	15742.826706274	192
bin	18605.008800606	416
bin	21467.190894939	222
bin	24329.372989271	111
bin	27191.555083604	91
bin	30053.737177936	97
bin	32915.919272269	44
bin	35778.101366601	51
bin	38640.283460933	37
bin	41502.465555266	28
bin	44364.647649598	27
bin	47226.829743931	18
bin	50089.011838263	13
bin	52951.193932596	17
bin	55813.376026928	19
bin	58675.55812126	10
bin	61537.740215593	24
bin	64399.922309925	824
scalar scenarioPRJP1.node[94].lo0.lo 	droppedPkBitError:count 	0
attr interpolationmode  none
attr source  dropPkBitError
attr title  "packets dropped/bit error, count"
scalar scenarioPRJP1.node[94].lo0.lo 	droppedPkBitError:sum(packetBytes) 	0
attr interpolationmode  none
attr source  dropPkBitError
attr title  "packets dropped/bit error, sum(packetBytes)"
scalar scenarioPRJP1.node[94].lo0.lo 	rcvdPkFromHL:count 	0
attr interpolationmode  none
attr source  packetReceivedFromUpper
attr title  "packets received from higher layer, count"
scalar scenarioPRJP1.node[94].lo0.lo 	rcvdPkFromHL:sum(packetBytes) 	0
attr interpolationmode  none
attr source  packetReceivedFromUpper
attr title  "packets received from higher layer, sum(packetBytes)"
scalar scenarioPRJP1.node[94].lo0.lo 	passedUpPk:count 	0
attr interpolationmode  none
attr source  packetSentToUpper
attr title  "packets passed to higher layer, count"
scalar scenarioPRJP1.node[94].lo0.lo 	passedUpPk:sum(packetBytes) 	0
attr interpolationmode  none
attr source  packetSentToUpper
attr title  "packets passed to higher layer, sum(packetBytes)"
