version 2
run DYMOUM-TRG-100n-15-20150819-14:47:55-31195
attr configname DYMOUM-TRG-100n
attr datetime 20150819-14:47:55
attr experiment DYMOUM-TRG-100n
attr inifile omnetpp.ini
attr iterationvars ""
attr iterationvars2 $repetition=15
attr measurement ""
attr network Prj_Part1_propag.scenarioPRJP1
attr processid 31195
attr repetition 15
attr replication #15
attr resultdir results
attr runnumber 15
attr seedset 15

scalar scenarioPRJP1.radioMedium.propagation 	"Arrival computation count" 	355777249
scalar scenarioPRJP1.radioMedium 	"transmission count" 	3593819
scalar scenarioPRJP1.radioMedium 	"radio frame send count" 	355777249
scalar scenarioPRJP1.radioMedium 	"reception computation count" 	353043637
scalar scenarioPRJP1.radioMedium 	"interference computation count" 	880782197
scalar scenarioPRJP1.radioMedium 	"reception decision computation count" 	21692281
scalar scenarioPRJP1.radioMedium 	"listening decision computation count" 	517344364
scalar scenarioPRJP1.radioMedium 	"reception cache hit" 	91.396396550244
attr unit  %
scalar scenarioPRJP1.radioMedium 	"interference cache hit" 	50
attr unit  %
scalar scenarioPRJP1.radioMedium 	"noise cache hit" 	0
attr unit  %
scalar scenarioPRJP1.radioMedium 	"snir cache hit" 	0
attr unit  %
scalar scenarioPRJP1.radioMedium 	"reception decision cache hit" 	0
attr unit  %
scalar scenarioPRJP1.node[0].app 	"Total sent" 	2613
scalar scenarioPRJP1.node[0].app 	"Total received" 	479
scalar scenarioPRJP1.node[0].app 	"Total deleted" 	57
scalar scenarioPRJP1.node[0].app 	dropPk:count 	57
attr interpolationmode  none
attr source  dropPk
attr title  "packets dropped, count"
scalar scenarioPRJP1.node[0].app 	dropPk:sum(packetBytes) 	29184
attr interpolationmode  none
attr source  dropPk
attr title  "packets dropped, sum(packetBytes)"
scalar scenarioPRJP1.node[0].app 	outOfOrderPk:count 	0
attr interpolationmode  none
attr source  outOfOrderPk
attr title  "packets received out of order, count"
scalar scenarioPRJP1.node[0].app 	outOfOrderPk:sum(packetBytes) 	0
attr interpolationmode  none
attr source  outOfOrderPk
attr title  "packets received out of order, sum(packetBytes)"
scalar scenarioPRJP1.node[0].app 	rcvdPk:count 	479
attr interpolationmode  none
attr source  rcvdPk
attr title  "packets received, count"
scalar scenarioPRJP1.node[0].app 	rcvdPk:sum(packetBytes) 	245248
attr interpolationmode  none
attr source  rcvdPk
attr title  "packets received, sum(packetBytes)"
statistic scenarioPRJP1.node[0].app 	endToEndDelay:histogram
field count 479
field mean 4.149538981815
field stddev 5.4067113477287
field sum 1987.6291722894
field sqrsum 22220.892923489
field min 0.000945031315
field max 19.899125114158
attr interpolationmode  none
attr source  messageAge(rcvdPk)
attr title  "delay, histogram"
attr unit  s
bin	-INF	0
bin	-9.3166876047655	0
bin	-8.0743365585862	0
bin	-6.831985512407	0
bin	-5.5896344662277	0
bin	-4.3472834200484	0
bin	-3.1049323738692	0
bin	-1.8625813276899	0
bin	-0.62023028151063	222
bin	0.62212076466863	36
bin	1.8644718108479	26
bin	3.1068228570272	28
bin	4.3491739032064	19
bin	5.5915249493857	20
bin	6.833875995565	17
bin	8.0762270417442	19
bin	9.3185780879235	19
bin	10.560929134103	14
bin	11.803280180282	11
bin	13.045631226461	11
bin	14.287982272641	8
bin	15.53033331882	8
bin	16.772684364999	13
bin	18.015035411178	7
bin	19.257386457358	1
bin	20.499737503537	0
bin	21.742088549716	0
bin	22.984439595895	0
bin	24.226790642075	0
bin	25.469141688254	0
bin	26.711492734433	0
bin	27.953843780613	0
scalar scenarioPRJP1.node[0].app 	sentPk:count 	2613
attr interpolationmode  none
attr source  sentPk
attr title  "packets sent, count"
scalar scenarioPRJP1.node[0].app 	sentPk:sum(packetBytes) 	1337856
attr interpolationmode  none
attr source  sentPk
attr title  "packets sent, sum(packetBytes)"
scalar scenarioPRJP1.node[0].udp 	droppedPkBadChecksum:count 	0
attr interpolationmode  none
attr title  "packets dropped (checksum error), count"
scalar scenarioPRJP1.node[0].udp 	droppedPkWrongPort:count 	0
attr interpolationmode  none
attr title  "packets dropped (wrong port), count"
scalar scenarioPRJP1.node[0].udp 	passedUpPk:count 	536
attr interpolationmode  none
attr title  "packets passed up, count"
scalar scenarioPRJP1.node[0].udp 	rcvdPk:count 	536
attr interpolationmode  none
attr source  rcvdPk
attr title  "packets received, count"
scalar scenarioPRJP1.node[0].udp 	rcvdPk:sum(packetBytes) 	278720
attr interpolationmode  none
attr source  rcvdPk
attr title  "packets received, sum(packetBytes)"
scalar scenarioPRJP1.node[0].udp 	sentPk:count 	2613
attr interpolationmode  none
attr source  sentPk
attr title  "packets sent, count"
scalar scenarioPRJP1.node[0].udp 	sentPk:sum(packetBytes) 	1358760
attr interpolationmode  none
attr source  sentPk
attr title  "packets sent, sum(packetBytes)"
scalar scenarioPRJP1.node[0].networkLayer.arp 	failedARPResolution:count 	7
attr title  "ARP failed resolutions, count"
scalar scenarioPRJP1.node[0].networkLayer.arp 	completedARPResolution:count 	990
attr title  "ARP completed resolutions, count"
scalar scenarioPRJP1.node[0].networkLayer.arp 	initiatedARPResolution:count 	94
attr title  "ARP initiated resolutions, count"
scalar scenarioPRJP1.node[0].networkLayer.arp 	sentReply:count 	88
attr title  "ARP replies sent, count"
scalar scenarioPRJP1.node[0].networkLayer.arp 	sentReq:count 	157
attr title  "ARP request sent, count"
scalar scenarioPRJP1.node[0].manetrouting 	"simulated time" 	950
scalar scenarioPRJP1.node[0].manetrouting 	"Dymo totalSend " 	3524491
scalar scenarioPRJP1.node[0].manetrouting 	"Dymo Rreq send" 	1972917
scalar scenarioPRJP1.node[0].manetrouting 	"Dymo Rreq rec" 	1532591
scalar scenarioPRJP1.node[0].manetrouting 	"Dymo Rrep send" 	3783
scalar scenarioPRJP1.node[0].manetrouting 	"Dymo Rrep rec" 	2428
scalar scenarioPRJP1.node[0].manetrouting 	"Dymo Rerr send" 	10034
scalar scenarioPRJP1.node[0].manetrouting 	"Dymo Rerr rec" 	32711
scalar scenarioPRJP1.node[0].mobility 	startTime 	0.1
scalar scenarioPRJP1.node[0].mobility 	totalTime 	949.9
scalar scenarioPRJP1.node[0].mobility 	stopTime 	950
scalar scenarioPRJP1.node[0].mobility 	minSpeed 	2.4755165838953e-13
scalar scenarioPRJP1.node[0].mobility 	maxSpeed 	19.425425575717
scalar scenarioPRJP1.node[0].mobility 	totalDistance 	9859.5905695557
scalar scenarioPRJP1.node[0].mobility 	totalCO2Emission 	2888.9235667899
scalar scenarioPRJP1.node[0].wlan.mgmt 	dataQueueLen:max 	92
attr interpolationmode  sample-hold
attr title  "data queue length, max"
scalar scenarioPRJP1.node[0].wlan.mgmt 	dataQueueLen:timeavg 	0.020470741078808
attr interpolationmode  sample-hold
attr title  "data queue length, timeavg"
scalar scenarioPRJP1.node[0].wlan.mgmt 	dropPkByQueue:count 	0
attr interpolationmode  none
attr source  dropPkByQueue
attr title  "packets dropped by queue, count"
scalar scenarioPRJP1.node[0].wlan.mgmt 	dropPkByQueue:sum(packetBytes) 	0
attr interpolationmode  none
attr source  dropPkByQueue
attr title  "packets dropped by queue, sum(packetBytes)"
scalar scenarioPRJP1.node[0].wlan.mac 	"number of received packets" 	6369
scalar scenarioPRJP1.node[0].wlan.mac 	"number of collisions" 	76324
scalar scenarioPRJP1.node[0].wlan.mac 	"number of internal collisions" 	0
scalar scenarioPRJP1.node[0].wlan.mac 	"number of retry for AC 0" 	14440
scalar scenarioPRJP1.node[0].wlan.mac 	"number of retry for AC 1" 	6
scalar scenarioPRJP1.node[0].wlan.mac 	"number of retry for AC 2" 	0
scalar scenarioPRJP1.node[0].wlan.mac 	"number of retry for AC 3" 	0
scalar scenarioPRJP1.node[0].wlan.mac 	"sent and received bits" 	24897304
scalar scenarioPRJP1.node[0].wlan.mac 	"sent packet within AC 0" 	1617
scalar scenarioPRJP1.node[0].wlan.mac 	"sent packet within AC 1" 	0
scalar scenarioPRJP1.node[0].wlan.mac 	"sent packet within AC 2" 	0
scalar scenarioPRJP1.node[0].wlan.mac 	"sent packet within AC 3" 	0
scalar scenarioPRJP1.node[0].wlan.mac 	"sent in TXOP " 	0
scalar scenarioPRJP1.node[0].wlan.mac 	"sentWithoutRetry AC 0" 	1213
scalar scenarioPRJP1.node[0].wlan.mac 	"sentWithoutRetry AC 1" 	0
scalar scenarioPRJP1.node[0].wlan.mac 	"sentWithoutRetry AC 2" 	0
scalar scenarioPRJP1.node[0].wlan.mac 	"sentWithoutRetry AC 3" 	0
scalar scenarioPRJP1.node[0].wlan.mac 	"numGivenUp AC 0" 	2239
scalar scenarioPRJP1.node[0].wlan.mac 	"numGivenUp AC 1" 	1
scalar scenarioPRJP1.node[0].wlan.mac 	"numGivenUp AC 2" 	0
scalar scenarioPRJP1.node[0].wlan.mac 	"numGivenUp AC 3" 	0
scalar scenarioPRJP1.node[0].wlan.mac 	"numDropped AC 0" 	38
scalar scenarioPRJP1.node[0].wlan.mac 	"numDropped AC 1" 	0
scalar scenarioPRJP1.node[0].wlan.mac 	"numDropped AC 2" 	0
scalar scenarioPRJP1.node[0].wlan.mac 	"numDropped AC 3" 	0
scalar scenarioPRJP1.node[0].wlan.mac 	rcvdPkFromLL:count 	270791
attr interpolationmode  none
attr source  packetReceivedFromLower
attr title  "packets received from lower layer, count"
scalar scenarioPRJP1.node[0].wlan.mac 	rcvdPkFromLL:sum(packetBytes) 	86767271
attr interpolationmode  none
attr source  packetReceivedFromLower
attr title  "packets received from lower layer, sum(packetBytes)"
scalar scenarioPRJP1.node[0].wlan.mac 	sentDownPk:count 	40200
attr interpolationmode  none
attr source  packetSentToLower
attr title  "packets sent to lower layer, count"
scalar scenarioPRJP1.node[0].wlan.mac 	sentDownPk:sum(packetBytes) 	12532374
attr interpolationmode  none
attr source  packetSentToLower
attr title  "packets sent to lower layer, sum(packetBytes)"
scalar scenarioPRJP1.node[0].wlan.mac 	rcvdPkFromHL:count 	19423
attr interpolationmode  none
attr source  packetReceivedFromUpper
attr title  "packets received from higher layer, count"
scalar scenarioPRJP1.node[0].wlan.mac 	rcvdPkFromHL:sum(packetBytes) 	4383626
attr interpolationmode  none
attr source  packetReceivedFromUpper
attr title  "packets received from higher layer, sum(packetBytes)"
scalar scenarioPRJP1.node[0].wlan.mac 	passedUpPk:count 	72968
attr interpolationmode  none
attr source  packetSentToUpper
attr title  "packets passed to higher layer, count"
scalar scenarioPRJP1.node[0].wlan.mac 	passedUpPk:sum(packetBytes) 	11828911
attr interpolationmode  none
attr source  packetSentToUpper
attr title  "packets passed to higher layer, sum(packetBytes)"
statistic scenarioPRJP1.node[0].wlan.radio 	radioChannel:histogram
field count 1
field mean 3
field stddev nan
field sum 3
field sqrsum 9
field min 3
field max 3
attr interpolationmode  sample-hold
attr source  radioChannelChanged
attr title  "Radio channel, histogram"
bin	-INF	0
bin	2	0
bin	3	1
bin	4	0
scalar scenarioPRJP1.node[0].wlan.radio 	transmissionState:count 	160800
attr interpolationmode  sample-hold
attr source  transmissionStateChanged
attr title  "Radio transmission state, count"
scalar scenarioPRJP1.node[0].wlan.radio 	receptionState:count 	646960
attr interpolationmode  sample-hold
attr source  receptionStateChanged
attr title  "Radio reception state, count"
scalar scenarioPRJP1.node[0].wlan.radio 	radioMode:count 	80402
attr interpolationmode  sample-hold
attr source  radioModeChanged
attr title  "Radio mode, count"
statistic scenarioPRJP1.node[0].wlan.radio 	symbolErrorRate:histogram
field count 0
field mean nan
field stddev nan
field sum 0
field sqrsum 0
field min nan
field max nan
attr source  symbolErrorRate
attr title  "Symbol error rate, histogram"
bin	-INF	0
bin	-0.5	0
bin	-0.46666666666667	0
bin	-0.43333333333333	0
bin	-0.4	0
bin	-0.36666666666667	0
bin	-0.33333333333333	0
bin	-0.3	0
bin	-0.26666666666667	0
bin	-0.23333333333333	0
bin	-0.2	0
bin	-0.16666666666667	0
bin	-0.13333333333333	0
bin	-0.1	0
bin	-0.066666666666667	0
bin	-0.033333333333333	0
bin	0	0
bin	0.033333333333333	0
bin	0.066666666666667	0
bin	0.1	0
bin	0.13333333333333	0
bin	0.16666666666667	0
bin	0.2	0
bin	0.23333333333333	0
bin	0.26666666666667	0
bin	0.3	0
bin	0.33333333333333	0
bin	0.36666666666667	0
bin	0.4	0
bin	0.43333333333333	0
bin	0.46666666666667	0
bin	0.5	0
statistic scenarioPRJP1.node[0].wlan.radio 	bitErrorRate:histogram
field count 0
field mean nan
field stddev nan
field sum 0
field sqrsum 0
field min nan
field max nan
attr source  bitErrorRate
attr title  "Bit error rate, histogram"
bin	-INF	0
bin	-0.5	0
bin	-0.46666666666667	0
bin	-0.43333333333333	0
bin	-0.4	0
bin	-0.36666666666667	0
bin	-0.33333333333333	0
bin	-0.3	0
bin	-0.26666666666667	0
bin	-0.23333333333333	0
bin	-0.2	0
bin	-0.16666666666667	0
bin	-0.13333333333333	0
bin	-0.1	0
bin	-0.066666666666667	0
bin	-0.033333333333333	0
bin	0	0
bin	0.033333333333333	0
bin	0.066666666666667	0
bin	0.1	0
bin	0.13333333333333	0
bin	0.16666666666667	0
bin	0.2	0
bin	0.23333333333333	0
bin	0.26666666666667	0
bin	0.3	0
bin	0.33333333333333	0
bin	0.36666666666667	0
bin	0.4	0
bin	0.43333333333333	0
bin	0.46666666666667	0
bin	0.5	0
statistic scenarioPRJP1.node[0].wlan.radio 	packetErrorRate:histogram
field count 270791
field mean 0.25957467836081
field stddev 0.42890846663212
field sum 70290.486728001
field sqrsum 68060.828479871
field min 0
field max 1
attr source  packetErrorRate
attr title  "Packet error rate, histogram"
bin	-INF	0
bin	-0.5	0
bin	-0.43333333333333	0
bin	-0.36666666666667	0
bin	-0.3	0
bin	-0.23333333333333	0
bin	-0.16666666666667	0
bin	-0.1	0
bin	-0.033333333333333	191604
bin	0.033333333333333	3482
bin	0.1	1700
bin	0.16666666666667	1185
bin	0.23333333333333	1006
bin	0.3	847
bin	0.36666666666667	766
bin	0.43333333333333	645
bin	0.5	622
bin	0.56666666666667	544
bin	0.63333333333333	601
bin	0.7	575
bin	0.76666666666667	650
bin	0.83333333333333	807
bin	0.9	1204
bin	0.96666666666667	64553
bin	1.0333333333333	0
bin	1.1	0
bin	1.1666666666667	0
bin	1.2333333333333	0
bin	1.3	0
bin	1.3666666666667	0
bin	1.4333333333333	0
bin	1.5	0
statistic scenarioPRJP1.node[0].wlan.radio 	minSNIR:histogram
field count 270791
field mean 2274.7186654229
field stddev 25702.368752609
field sum 615973342.12853
field sqrsum 1.8028822441242e+14
field min 0.00017047039025955
field max 753239.71923443
attr source  minSNIR
attr title  "Min SNIR, histogram"
bin	-INF	0
bin	-9465.347817609	0
bin	-8203.125062188	0
bin	-6940.902306767	0
bin	-5678.679551346	0
bin	-4416.4567959251	0
bin	-3154.2340405041	0
bin	-1892.0112850831	0
bin	-629.78852966213	241039
bin	632.43422575885	12153
bin	1894.6569811798	4234
bin	3156.8797366008	2243
bin	4419.1024920218	1409
bin	5681.3252474428	1043
bin	6943.5480028637	908
bin	8205.7707582847	596
bin	9467.9935137057	468
bin	10730.216269127	521
bin	11992.439024548	389
bin	13254.661779969	339
bin	14516.88453539	265
bin	15779.107290811	183
bin	17041.330046232	231
bin	18303.552801653	270
bin	19565.775557074	336
bin	20827.998312495	164
bin	22090.221067916	159
bin	23352.443823336	248
bin	24614.666578757	84
bin	25876.889334178	109
bin	27139.112089599	61
bin	28401.33484502	3339
scalar scenarioPRJP1.node[0].lo0.lo 	droppedPkBitError:count 	0
attr interpolationmode  none
attr source  dropPkBitError
attr title  "packets dropped/bit error, count"
scalar scenarioPRJP1.node[0].lo0.lo 	droppedPkBitError:sum(packetBytes) 	0
attr interpolationmode  none
attr source  dropPkBitError
attr title  "packets dropped/bit error, sum(packetBytes)"
scalar scenarioPRJP1.node[0].lo0.lo 	rcvdPkFromHL:count 	0
attr interpolationmode  none
attr source  packetReceivedFromUpper
attr title  "packets received from higher layer, count"
scalar scenarioPRJP1.node[0].lo0.lo 	rcvdPkFromHL:sum(packetBytes) 	0
attr interpolationmode  none
attr source  packetReceivedFromUpper
attr title  "packets received from higher layer, sum(packetBytes)"
scalar scenarioPRJP1.node[0].lo0.lo 	passedUpPk:count 	0
attr interpolationmode  none
attr source  packetSentToUpper
attr title  "packets passed to higher layer, count"
scalar scenarioPRJP1.node[0].lo0.lo 	passedUpPk:sum(packetBytes) 	0
attr interpolationmode  none
attr source  packetSentToUpper
attr title  "packets passed to higher layer, sum(packetBytes)"
scalar scenarioPRJP1.node[21].app 	"Total sent" 	2623
scalar scenarioPRJP1.node[21].app 	"Total received" 	359
scalar scenarioPRJP1.node[21].app 	"Total deleted" 	94
scalar scenarioPRJP1.node[21].app 	dropPk:count 	94
attr interpolationmode  none
attr source  dropPk
attr title  "packets dropped, count"
scalar scenarioPRJP1.node[21].app 	dropPk:sum(packetBytes) 	48128
attr interpolationmode  none
attr source  dropPk
attr title  "packets dropped, sum(packetBytes)"
scalar scenarioPRJP1.node[21].app 	outOfOrderPk:count 	0
attr interpolationmode  none
attr source  outOfOrderPk
attr title  "packets received out of order, count"
scalar scenarioPRJP1.node[21].app 	outOfOrderPk:sum(packetBytes) 	0
attr interpolationmode  none
attr source  outOfOrderPk
attr title  "packets received out of order, sum(packetBytes)"
scalar scenarioPRJP1.node[21].app 	rcvdPk:count 	359
attr interpolationmode  none
attr source  rcvdPk
attr title  "packets received, count"
scalar scenarioPRJP1.node[21].app 	rcvdPk:sum(packetBytes) 	183808
attr interpolationmode  none
attr source  rcvdPk
attr title  "packets received, sum(packetBytes)"
statistic scenarioPRJP1.node[21].app 	endToEndDelay:histogram
field count 359
field mean 4.9849670446842
field stddev 5.6806580338347
field sum 1789.6031690416
field sqrsum 20473.728320394
field min 0.000945061433
field max 19.991708566382
attr interpolationmode  none
attr source  messageAge(rcvdPk)
attr title  "delay, histogram"
attr unit  s
bin	-INF	0
bin	-9.741970655156	0
bin	-8.442915218306	0
bin	-7.143859781456	0
bin	-5.844804344606	0
bin	-4.545748907756	0
bin	-3.246693470906	0
bin	-1.947638034056	0
bin	-0.648582597206	140
bin	0.650472839644	27
bin	1.949528276494	22
bin	3.248583713344	16
bin	4.547639150194	25
bin	5.846694587044	20
bin	7.145750023894	16
bin	8.444805460744	17
bin	9.743860897594	12
bin	11.042916334444	10
bin	12.341971771294	11
bin	13.641027208144	11
bin	14.940082644994	15
bin	16.239138081844	8
bin	17.538193518694	2
bin	18.837248955544	7
bin	20.136304392394	0
bin	21.435359829244	0
bin	22.734415266094	0
bin	24.033470702944	0
bin	25.332526139794	0
bin	26.631581576644	0
bin	27.930637013494	0
bin	29.229692450344	0
scalar scenarioPRJP1.node[21].app 	sentPk:count 	2623
attr interpolationmode  none
attr source  sentPk
attr title  "packets sent, count"
scalar scenarioPRJP1.node[21].app 	sentPk:sum(packetBytes) 	1342976
attr interpolationmode  none
attr source  sentPk
attr title  "packets sent, sum(packetBytes)"
scalar scenarioPRJP1.node[21].udp 	droppedPkBadChecksum:count 	0
attr interpolationmode  none
attr title  "packets dropped (checksum error), count"
scalar scenarioPRJP1.node[21].udp 	droppedPkWrongPort:count 	0
attr interpolationmode  none
attr title  "packets dropped (wrong port), count"
scalar scenarioPRJP1.node[21].udp 	passedUpPk:count 	453
attr interpolationmode  none
attr title  "packets passed up, count"
scalar scenarioPRJP1.node[21].udp 	rcvdPk:count 	453
attr interpolationmode  none
attr source  rcvdPk
attr title  "packets received, count"
scalar scenarioPRJP1.node[21].udp 	rcvdPk:sum(packetBytes) 	235560
attr interpolationmode  none
attr source  rcvdPk
attr title  "packets received, sum(packetBytes)"
scalar scenarioPRJP1.node[21].udp 	sentPk:count 	2623
attr interpolationmode  none
attr source  sentPk
attr title  "packets sent, count"
scalar scenarioPRJP1.node[21].udp 	sentPk:sum(packetBytes) 	1363960
attr interpolationmode  none
attr source  sentPk
attr title  "packets sent, sum(packetBytes)"
scalar scenarioPRJP1.node[21].networkLayer.arp 	failedARPResolution:count 	12
attr title  "ARP failed resolutions, count"
scalar scenarioPRJP1.node[21].networkLayer.arp 	completedARPResolution:count 	544
attr title  "ARP completed resolutions, count"
scalar scenarioPRJP1.node[21].networkLayer.arp 	initiatedARPResolution:count 	101
attr title  "ARP initiated resolutions, count"
scalar scenarioPRJP1.node[21].networkLayer.arp 	sentReply:count 	67
attr title  "ARP replies sent, count"
scalar scenarioPRJP1.node[21].networkLayer.arp 	sentReq:count 	176
attr title  "ARP request sent, count"
scalar scenarioPRJP1.node[21].mobility 	startTime 	2.5
scalar scenarioPRJP1.node[21].mobility 	totalTime 	947.5
scalar scenarioPRJP1.node[21].mobility 	stopTime 	950
scalar scenarioPRJP1.node[21].mobility 	minSpeed 	2.4755504925585e-13
scalar scenarioPRJP1.node[21].mobility 	maxSpeed 	20.965732784875
scalar scenarioPRJP1.node[21].mobility 	totalDistance 	10707.017786854
scalar scenarioPRJP1.node[21].mobility 	totalCO2Emission 	2838.1550204292
scalar scenarioPRJP1.node[21].wlan.mgmt 	dataQueueLen:max 	42
attr interpolationmode  sample-hold
attr title  "data queue length, max"
scalar scenarioPRJP1.node[21].wlan.mgmt 	dataQueueLen:timeavg 	0
attr interpolationmode  sample-hold
attr title  "data queue length, timeavg"
scalar scenarioPRJP1.node[21].wlan.mgmt 	dropPkByQueue:count 	0
attr interpolationmode  none
attr source  dropPkByQueue
attr title  "packets dropped by queue, count"
scalar scenarioPRJP1.node[21].wlan.mgmt 	dropPkByQueue:sum(packetBytes) 	0
attr interpolationmode  none
attr source  dropPkByQueue
attr title  "packets dropped by queue, sum(packetBytes)"
scalar scenarioPRJP1.node[21].wlan.mac 	"number of received packets" 	6896
scalar scenarioPRJP1.node[21].wlan.mac 	"number of collisions" 	44825
scalar scenarioPRJP1.node[21].wlan.mac 	"number of internal collisions" 	0
scalar scenarioPRJP1.node[21].wlan.mac 	"number of retry for AC 0" 	15068
scalar scenarioPRJP1.node[21].wlan.mac 	"number of retry for AC 1" 	0
scalar scenarioPRJP1.node[21].wlan.mac 	"number of retry for AC 2" 	0
scalar scenarioPRJP1.node[21].wlan.mac 	"number of retry for AC 3" 	0
scalar scenarioPRJP1.node[21].wlan.mac 	"sent and received bits" 	20036184
scalar scenarioPRJP1.node[21].wlan.mac 	"sent packet within AC 0" 	891
scalar scenarioPRJP1.node[21].wlan.mac 	"sent packet within AC 1" 	0
scalar scenarioPRJP1.node[21].wlan.mac 	"sent packet within AC 2" 	0
scalar scenarioPRJP1.node[21].wlan.mac 	"sent packet within AC 3" 	0
scalar scenarioPRJP1.node[21].wlan.mac 	"sent in TXOP " 	0
scalar scenarioPRJP1.node[21].wlan.mac 	"sentWithoutRetry AC 0" 	694
scalar scenarioPRJP1.node[21].wlan.mac 	"sentWithoutRetry AC 1" 	0
scalar scenarioPRJP1.node[21].wlan.mac 	"sentWithoutRetry AC 2" 	0
scalar scenarioPRJP1.node[21].wlan.mac 	"sentWithoutRetry AC 3" 	0
scalar scenarioPRJP1.node[21].wlan.mac 	"numGivenUp AC 0" 	2431
scalar scenarioPRJP1.node[21].wlan.mac 	"numGivenUp AC 1" 	0
scalar scenarioPRJP1.node[21].wlan.mac 	"numGivenUp AC 2" 	0
scalar scenarioPRJP1.node[21].wlan.mac 	"numGivenUp AC 3" 	0
scalar scenarioPRJP1.node[21].wlan.mac 	"numDropped AC 0" 	0
scalar scenarioPRJP1.node[21].wlan.mac 	"numDropped AC 1" 	0
scalar scenarioPRJP1.node[21].wlan.mac 	"numDropped AC 2" 	0
scalar scenarioPRJP1.node[21].wlan.mac 	"numDropped AC 3" 	0
scalar scenarioPRJP1.node[21].wlan.mac 	rcvdPkFromLL:count 	155213
attr interpolationmode  none
attr source  packetReceivedFromLower
attr title  "packets received from lower layer, count"
scalar scenarioPRJP1.node[21].wlan.mac 	rcvdPkFromLL:sum(packetBytes) 	48912378
attr interpolationmode  none
attr source  packetReceivedFromLower
attr title  "packets received from lower layer, sum(packetBytes)"
scalar scenarioPRJP1.node[21].wlan.mac 	sentDownPk:count 	39205
attr interpolationmode  none
attr source  packetSentToLower
attr title  "packets sent to lower layer, count"
scalar scenarioPRJP1.node[21].wlan.mac 	sentDownPk:sum(packetBytes) 	12413975
attr interpolationmode  none
attr source  packetSentToLower
attr title  "packets sent to lower layer, sum(packetBytes)"
scalar scenarioPRJP1.node[21].wlan.mac 	rcvdPkFromHL:count 	17241
attr interpolationmode  none
attr source  packetReceivedFromUpper
attr title  "packets received from higher layer, count"
scalar scenarioPRJP1.node[21].wlan.mac 	rcvdPkFromHL:sum(packetBytes) 	3868004
attr interpolationmode  none
attr source  packetReceivedFromUpper
attr title  "packets received from higher layer, sum(packetBytes)"
scalar scenarioPRJP1.node[21].wlan.mac 	passedUpPk:count 	42934
attr interpolationmode  none
attr source  packetSentToUpper
attr title  "packets passed to higher layer, count"
scalar scenarioPRJP1.node[21].wlan.mac 	passedUpPk:sum(packetBytes) 	7361062
attr interpolationmode  none
attr source  packetSentToUpper
attr title  "packets passed to higher layer, sum(packetBytes)"
statistic scenarioPRJP1.node[21].wlan.radio 	radioChannel:histogram
field count 1
field mean 3
field stddev nan
field sum 3
field sqrsum 9
field min 3
field max 3
attr interpolationmode  sample-hold
attr source  radioChannelChanged
attr title  "Radio channel, histogram"
bin	-INF	0
bin	2	0
bin	3	1
bin	4	0
scalar scenarioPRJP1.node[21].wlan.radio 	transmissionState:count 	156820
attr interpolationmode  sample-hold
attr source  transmissionStateChanged
attr title  "Radio transmission state, count"
scalar scenarioPRJP1.node[21].wlan.radio 	receptionState:count 	402758
attr interpolationmode  sample-hold
attr source  receptionStateChanged
attr title  "Radio reception state, count"
scalar scenarioPRJP1.node[21].wlan.radio 	radioMode:count 	78412
attr interpolationmode  sample-hold
attr source  radioModeChanged
attr title  "Radio mode, count"
statistic scenarioPRJP1.node[21].wlan.radio 	symbolErrorRate:histogram
field count 0
field mean nan
field stddev nan
field sum 0
field sqrsum 0
field min nan
field max nan
attr source  symbolErrorRate
attr title  "Symbol error rate, histogram"
bin	-INF	0
bin	-0.5	0
bin	-0.46666666666667	0
bin	-0.43333333333333	0
bin	-0.4	0
bin	-0.36666666666667	0
bin	-0.33333333333333	0
bin	-0.3	0
bin	-0.26666666666667	0
bin	-0.23333333333333	0
bin	-0.2	0
bin	-0.16666666666667	0
bin	-0.13333333333333	0
bin	-0.1	0
bin	-0.066666666666667	0
bin	-0.033333333333333	0
bin	0	0
bin	0.033333333333333	0
bin	0.066666666666667	0
bin	0.1	0
bin	0.13333333333333	0
bin	0.16666666666667	0
bin	0.2	0
bin	0.23333333333333	0
bin	0.26666666666667	0
bin	0.3	0
bin	0.33333333333333	0
bin	0.36666666666667	0
bin	0.4	0
bin	0.43333333333333	0
bin	0.46666666666667	0
bin	0.5	0
statistic scenarioPRJP1.node[21].wlan.radio 	bitErrorRate:histogram
field count 0
field mean nan
field stddev nan
field sum 0
field sqrsum 0
field min nan
field max nan
attr source  bitErrorRate
attr title  "Bit error rate, histogram"
bin	-INF	0
bin	-0.5	0
bin	-0.46666666666667	0
bin	-0.43333333333333	0
bin	-0.4	0
bin	-0.36666666666667	0
bin	-0.33333333333333	0
bin	-0.3	0
bin	-0.26666666666667	0
bin	-0.23333333333333	0
bin	-0.2	0
bin	-0.16666666666667	0
bin	-0.13333333333333	0
bin	-0.1	0
bin	-0.066666666666667	0
bin	-0.033333333333333	0
bin	0	0
bin	0.033333333333333	0
bin	0.066666666666667	0
bin	0.1	0
bin	0.13333333333333	0
bin	0.16666666666667	0
bin	0.2	0
bin	0.23333333333333	0
bin	0.26666666666667	0
bin	0.3	0
bin	0.33333333333333	0
bin	0.36666666666667	0
bin	0.4	0
bin	0.43333333333333	0
bin	0.46666666666667	0
bin	0.5	0
statistic scenarioPRJP1.node[21].wlan.radio 	packetErrorRate:histogram
field count 155213
field mean 0.26396895479252
field stddev 0.43003411056838
field sum 40971.413380212
field sqrsum 39518.433304744
field min 0
field max 1
attr source  packetErrorRate
attr title  "Packet error rate, histogram"
bin	-INF	0
bin	-0.5	0
bin	-0.43333333333333	0
bin	-0.36666666666667	0
bin	-0.3	0
bin	-0.23333333333333	0
bin	-0.16666666666667	0
bin	-0.1	0
bin	-0.033333333333333	108343
bin	0.033333333333333	2371
bin	0.1	1173
bin	0.16666666666667	792
bin	0.23333333333333	621
bin	0.3	516
bin	0.36666666666667	470
bin	0.43333333333333	385
bin	0.5	391
bin	0.56666666666667	369
bin	0.63333333333333	367
bin	0.7	441
bin	0.76666666666667	448
bin	0.83333333333333	540
bin	0.9	821
bin	0.96666666666667	37165
bin	1.0333333333333	0
bin	1.1	0
bin	1.1666666666667	0
bin	1.2333333333333	0
bin	1.3	0
bin	1.3666666666667	0
bin	1.4333333333333	0
bin	1.5	0
statistic scenarioPRJP1.node[21].wlan.radio 	minSNIR:histogram
field count 155213
field mean 959.46662836527
field stddev 13010.995186468
field sum 148921693.78846
field sqrsum 26418103366582
field min 0.00018291800149872
field max 937846.50406285
attr source  minSNIR
attr title  "Min SNIR, histogram"
bin	-INF	0
bin	-19541.640489257	0
bin	-16936.064675756	0
bin	-14330.488862255	0
bin	-11724.913048754	0
bin	-9119.3372352526	0
bin	-6513.7614217514	0
bin	-3908.1856082503	0
bin	-1302.6097947492	148136
bin	1302.966018752	2900
bin	3908.5418322531	1133
bin	6514.1176457542	622
bin	9119.6934592554	471
bin	11725.269272757	295
bin	14330.845086258	153
bin	16936.420899759	211
bin	19541.99671326	121
bin	22147.572526761	167
bin	24753.148340262	83
bin	27358.724153763	59
bin	29964.299967264	30
bin	32569.875780766	43
bin	35175.451594267	48
bin	37781.027407768	18
bin	40386.603221269	36
bin	42992.17903477	24
bin	45597.754848271	38
bin	48203.330661772	10
bin	50808.906475274	53
bin	53414.482288775	33
bin	56020.058102276	18
bin	58625.633915777	511
scalar scenarioPRJP1.node[21].lo0.lo 	droppedPkBitError:count 	0
attr interpolationmode  none
attr source  dropPkBitError
attr title  "packets dropped/bit error, count"
scalar scenarioPRJP1.node[21].lo0.lo 	droppedPkBitError:sum(packetBytes) 	0
attr interpolationmode  none
attr source  dropPkBitError
attr title  "packets dropped/bit error, sum(packetBytes)"
scalar scenarioPRJP1.node[21].lo0.lo 	rcvdPkFromHL:count 	2
attr interpolationmode  none
attr source  packetReceivedFromUpper
attr title  "packets received from higher layer, count"
scalar scenarioPRJP1.node[21].lo0.lo 	rcvdPkFromHL:sum(packetBytes) 	112
attr interpolationmode  none
attr source  packetReceivedFromUpper
attr title  "packets received from higher layer, sum(packetBytes)"
scalar scenarioPRJP1.node[21].lo0.lo 	passedUpPk:count 	2
attr interpolationmode  none
attr source  packetSentToUpper
attr title  "packets passed to higher layer, count"
scalar scenarioPRJP1.node[21].lo0.lo 	passedUpPk:sum(packetBytes) 	112
attr interpolationmode  none
attr source  packetSentToUpper
attr title  "packets passed to higher layer, sum(packetBytes)"
scalar scenarioPRJP1.node[41].app 	"Total sent" 	2613
scalar scenarioPRJP1.node[41].app 	"Total received" 	343
scalar scenarioPRJP1.node[41].app 	"Total deleted" 	55
scalar scenarioPRJP1.node[41].app 	dropPk:count 	55
attr interpolationmode  none
attr source  dropPk
attr title  "packets dropped, count"
scalar scenarioPRJP1.node[41].app 	dropPk:sum(packetBytes) 	28160
attr interpolationmode  none
attr source  dropPk
attr title  "packets dropped, sum(packetBytes)"
scalar scenarioPRJP1.node[41].app 	outOfOrderPk:count 	0
attr interpolationmode  none
attr source  outOfOrderPk
attr title  "packets received out of order, count"
scalar scenarioPRJP1.node[41].app 	outOfOrderPk:sum(packetBytes) 	0
attr interpolationmode  none
attr source  outOfOrderPk
attr title  "packets received out of order, sum(packetBytes)"
scalar scenarioPRJP1.node[41].app 	rcvdPk:count 	343
attr interpolationmode  none
attr source  rcvdPk
attr title  "packets received, count"
scalar scenarioPRJP1.node[41].app 	rcvdPk:sum(packetBytes) 	175616
attr interpolationmode  none
attr source  rcvdPk
attr title  "packets received, sum(packetBytes)"
statistic scenarioPRJP1.node[41].app 	endToEndDelay:histogram
field count 343
field mean 4.8303578434816
field stddev 5.8472952290939
field sum 1656.8127403142
field sqrsum 19696.273047052
field min 0.000945022685
field max 19.998733395348
attr interpolationmode  none
attr source  messageAge(rcvdPk)
attr title  "delay, histogram"
attr unit  s
bin	-INF	0
bin	-9.9979490942625	0
bin	-8.6647632058354	0
bin	-7.3315773174082	0
bin	-5.9983914289811	0
bin	-4.665205540554	0
bin	-3.3320196521268	0
bin	-1.9988337636997	0
bin	-0.66564787527257	154
bin	0.66753801315457	16
bin	2.0007239015817	17
bin	3.3339097900088	17
bin	4.667095678436	22
bin	6.0002815668631	17
bin	7.3334674552902	17
bin	8.6666533437174	11
bin	9.9998392321445	12
bin	11.333025120572	10
bin	12.666211008999	13
bin	13.999396897426	8
bin	15.332582785853	8
bin	16.66576867428	8
bin	17.998954562707	8
bin	19.332140451134	5
bin	20.665326339562	0
bin	21.998512227989	0
bin	23.331698116416	0
bin	24.664884004843	0
bin	25.99806989327	0
bin	27.331255781697	0
bin	28.664441670124	0
bin	29.997627558551	0
scalar scenarioPRJP1.node[41].app 	sentPk:count 	2613
attr interpolationmode  none
attr source  sentPk
attr title  "packets sent, count"
scalar scenarioPRJP1.node[41].app 	sentPk:sum(packetBytes) 	1337856
attr interpolationmode  none
attr source  sentPk
attr title  "packets sent, sum(packetBytes)"
scalar scenarioPRJP1.node[41].udp 	droppedPkBadChecksum:count 	0
attr interpolationmode  none
attr title  "packets dropped (checksum error), count"
scalar scenarioPRJP1.node[41].udp 	droppedPkWrongPort:count 	0
attr interpolationmode  none
attr title  "packets dropped (wrong port), count"
scalar scenarioPRJP1.node[41].udp 	passedUpPk:count 	398
attr interpolationmode  none
attr title  "packets passed up, count"
scalar scenarioPRJP1.node[41].udp 	rcvdPk:count 	398
attr interpolationmode  none
attr source  rcvdPk
attr title  "packets received, count"
scalar scenarioPRJP1.node[41].udp 	rcvdPk:sum(packetBytes) 	206960
attr interpolationmode  none
attr source  rcvdPk
attr title  "packets received, sum(packetBytes)"
scalar scenarioPRJP1.node[41].udp 	sentPk:count 	2613
attr interpolationmode  none
attr source  sentPk
attr title  "packets sent, count"
scalar scenarioPRJP1.node[41].udp 	sentPk:sum(packetBytes) 	1358760
attr interpolationmode  none
attr source  sentPk
attr title  "packets sent, sum(packetBytes)"
scalar scenarioPRJP1.node[41].networkLayer.arp 	failedARPResolution:count 	10
attr title  "ARP failed resolutions, count"
scalar scenarioPRJP1.node[41].networkLayer.arp 	completedARPResolution:count 	658
attr title  "ARP completed resolutions, count"
scalar scenarioPRJP1.node[41].networkLayer.arp 	initiatedARPResolution:count 	74
attr title  "ARP initiated resolutions, count"
scalar scenarioPRJP1.node[41].networkLayer.arp 	sentReply:count 	64
attr title  "ARP replies sent, count"
scalar scenarioPRJP1.node[41].networkLayer.arp 	sentReq:count 	123
attr title  "ARP request sent, count"
scalar scenarioPRJP1.node[41].mobility 	startTime 	4.9
scalar scenarioPRJP1.node[41].mobility 	totalTime 	945.1
scalar scenarioPRJP1.node[41].mobility 	stopTime 	950
scalar scenarioPRJP1.node[41].mobility 	minSpeed 	0
scalar scenarioPRJP1.node[41].mobility 	maxSpeed 	17.681557806925
scalar scenarioPRJP1.node[41].mobility 	totalDistance 	9979.3959118657
scalar scenarioPRJP1.node[41].mobility 	totalCO2Emission 	2544.8899734801
scalar scenarioPRJP1.node[41].wlan.mgmt 	dataQueueLen:max 	15
attr interpolationmode  sample-hold
attr title  "data queue length, max"
scalar scenarioPRJP1.node[41].wlan.mgmt 	dataQueueLen:timeavg 	0
attr interpolationmode  sample-hold
attr title  "data queue length, timeavg"
scalar scenarioPRJP1.node[41].wlan.mgmt 	dropPkByQueue:count 	0
attr interpolationmode  none
attr source  dropPkByQueue
attr title  "packets dropped by queue, count"
scalar scenarioPRJP1.node[41].wlan.mgmt 	dropPkByQueue:sum(packetBytes) 	0
attr interpolationmode  none
attr source  dropPkByQueue
attr title  "packets dropped by queue, sum(packetBytes)"
scalar scenarioPRJP1.node[41].wlan.mac 	"number of received packets" 	3245
scalar scenarioPRJP1.node[41].wlan.mac 	"number of collisions" 	43922
scalar scenarioPRJP1.node[41].wlan.mac 	"number of internal collisions" 	0
scalar scenarioPRJP1.node[41].wlan.mac 	"number of retry for AC 0" 	8492
scalar scenarioPRJP1.node[41].wlan.mac 	"number of retry for AC 1" 	0
scalar scenarioPRJP1.node[41].wlan.mac 	"number of retry for AC 2" 	0
scalar scenarioPRJP1.node[41].wlan.mac 	"number of retry for AC 3" 	0
scalar scenarioPRJP1.node[41].wlan.mac 	"sent and received bits" 	20897848
scalar scenarioPRJP1.node[41].wlan.mac 	"sent packet within AC 0" 	952
scalar scenarioPRJP1.node[41].wlan.mac 	"sent packet within AC 1" 	0
scalar scenarioPRJP1.node[41].wlan.mac 	"sent packet within AC 2" 	0
scalar scenarioPRJP1.node[41].wlan.mac 	"sent packet within AC 3" 	0
scalar scenarioPRJP1.node[41].wlan.mac 	"sent in TXOP " 	0
scalar scenarioPRJP1.node[41].wlan.mac 	"sentWithoutRetry AC 0" 	726
scalar scenarioPRJP1.node[41].wlan.mac 	"sentWithoutRetry AC 1" 	0
scalar scenarioPRJP1.node[41].wlan.mac 	"sentWithoutRetry AC 2" 	0
scalar scenarioPRJP1.node[41].wlan.mac 	"sentWithoutRetry AC 3" 	0
scalar scenarioPRJP1.node[41].wlan.mac 	"numGivenUp AC 0" 	1327
scalar scenarioPRJP1.node[41].wlan.mac 	"numGivenUp AC 1" 	0
scalar scenarioPRJP1.node[41].wlan.mac 	"numGivenUp AC 2" 	0
scalar scenarioPRJP1.node[41].wlan.mac 	"numGivenUp AC 3" 	0
scalar scenarioPRJP1.node[41].wlan.mac 	"numDropped AC 0" 	0
scalar scenarioPRJP1.node[41].wlan.mac 	"numDropped AC 1" 	0
scalar scenarioPRJP1.node[41].wlan.mac 	"numDropped AC 2" 	0
scalar scenarioPRJP1.node[41].wlan.mac 	"numDropped AC 3" 	0
scalar scenarioPRJP1.node[41].wlan.mac 	rcvdPkFromLL:count 	184014
attr interpolationmode  none
attr source  packetReceivedFromLower
attr title  "packets received from lower layer, count"
scalar scenarioPRJP1.node[41].wlan.mac 	rcvdPkFromLL:sum(packetBytes) 	54942709
attr interpolationmode  none
attr source  packetReceivedFromLower
attr title  "packets received from lower layer, sum(packetBytes)"
scalar scenarioPRJP1.node[41].wlan.mac 	sentDownPk:count 	29077
attr interpolationmode  none
attr source  packetSentToLower
attr title  "packets sent to lower layer, count"
scalar scenarioPRJP1.node[41].wlan.mac 	sentDownPk:sum(packetBytes) 	8102332
attr interpolationmode  none
attr source  packetSentToLower
attr title  "packets sent to lower layer, sum(packetBytes)"
scalar scenarioPRJP1.node[41].wlan.mac 	rcvdPkFromHL:count 	17340
attr interpolationmode  none
attr source  packetReceivedFromUpper
attr title  "packets received from higher layer, count"
scalar scenarioPRJP1.node[41].wlan.mac 	rcvdPkFromHL:sum(packetBytes) 	3346576
attr interpolationmode  none
attr source  packetReceivedFromUpper
attr title  "packets received from higher layer, sum(packetBytes)"
scalar scenarioPRJP1.node[41].wlan.mac 	passedUpPk:count 	62817
attr interpolationmode  none
attr source  packetSentToUpper
attr title  "packets passed to higher layer, count"
scalar scenarioPRJP1.node[41].wlan.mac 	passedUpPk:sum(packetBytes) 	9353719
attr interpolationmode  none
attr source  packetSentToUpper
attr title  "packets passed to higher layer, sum(packetBytes)"
statistic scenarioPRJP1.node[41].wlan.radio 	radioChannel:histogram
field count 1
field mean 3
field stddev nan
field sum 3
field sqrsum 9
field min 3
field max 3
attr interpolationmode  sample-hold
attr source  radioChannelChanged
attr title  "Radio channel, histogram"
bin	-INF	0
bin	2	0
bin	3	1
bin	4	0
scalar scenarioPRJP1.node[41].wlan.radio 	transmissionState:count 	116308
attr interpolationmode  sample-hold
attr source  transmissionStateChanged
attr title  "Radio transmission state, count"
scalar scenarioPRJP1.node[41].wlan.radio 	receptionState:count 	441553
attr interpolationmode  sample-hold
attr source  receptionStateChanged
attr title  "Radio reception state, count"
scalar scenarioPRJP1.node[41].wlan.radio 	radioMode:count 	58156
attr interpolationmode  sample-hold
attr source  radioModeChanged
attr title  "Radio mode, count"
statistic scenarioPRJP1.node[41].wlan.radio 	symbolErrorRate:histogram
field count 0
field mean nan
field stddev nan
field sum 0
field sqrsum 0
field min nan
field max nan
attr source  symbolErrorRate
attr title  "Symbol error rate, histogram"
bin	-INF	0
bin	-0.5	0
bin	-0.46666666666667	0
bin	-0.43333333333333	0
bin	-0.4	0
bin	-0.36666666666667	0
bin	-0.33333333333333	0
bin	-0.3	0
bin	-0.26666666666667	0
bin	-0.23333333333333	0
bin	-0.2	0
bin	-0.16666666666667	0
bin	-0.13333333333333	0
bin	-0.1	0
bin	-0.066666666666667	0
bin	-0.033333333333333	0
bin	0	0
bin	0.033333333333333	0
bin	0.066666666666667	0
bin	0.1	0
bin	0.13333333333333	0
bin	0.16666666666667	0
bin	0.2	0
bin	0.23333333333333	0
bin	0.26666666666667	0
bin	0.3	0
bin	0.33333333333333	0
bin	0.36666666666667	0
bin	0.4	0
bin	0.43333333333333	0
bin	0.46666666666667	0
bin	0.5	0
statistic scenarioPRJP1.node[41].wlan.radio 	bitErrorRate:histogram
field count 0
field mean nan
field stddev nan
field sum 0
field sqrsum 0
field min nan
field max nan
attr source  bitErrorRate
attr title  "Bit error rate, histogram"
bin	-INF	0
bin	-0.5	0
bin	-0.46666666666667	0
bin	-0.43333333333333	0
bin	-0.4	0
bin	-0.36666666666667	0
bin	-0.33333333333333	0
bin	-0.3	0
bin	-0.26666666666667	0
bin	-0.23333333333333	0
bin	-0.2	0
bin	-0.16666666666667	0
bin	-0.13333333333333	0
bin	-0.1	0
bin	-0.066666666666667	0
bin	-0.033333333333333	0
bin	0	0
bin	0.033333333333333	0
bin	0.066666666666667	0
bin	0.1	0
bin	0.13333333333333	0
bin	0.16666666666667	0
bin	0.2	0
bin	0.23333333333333	0
bin	0.26666666666667	0
bin	0.3	0
bin	0.33333333333333	0
bin	0.36666666666667	0
bin	0.4	0
bin	0.43333333333333	0
bin	0.46666666666667	0
bin	0.5	0
statistic scenarioPRJP1.node[41].wlan.radio 	packetErrorRate:histogram
field count 184014
field mean 0.2179139092952
field stddev 0.40356557601319
field sum 40099.210105047
field sqrsum 38707.48492319
field min 0
field max 1
attr source  packetErrorRate
attr title  "Packet error rate, histogram"
bin	-INF	0
bin	-0.00013995446733411	0
bin	-0.00012129387168957	0
bin	-0.00010263327604502	0
bin	-8.3972680400468e-05	0
bin	-6.531208475592e-05	0
bin	-4.6651489111371e-05	0
bin	-2.7990893466823e-05	0
bin	-9.3302978222742e-06	124693
bin	9.3302978222742e-06	1516
bin	2.7990893466823e-05	754
bin	4.6651489111371e-05	514
bin	6.531208475592e-05	378
bin	8.3972680400468e-05	292
bin	0.00010263327604502	246
bin	0.00012129387168957	228
bin	0.00013995446733411	173
bin	0.00015861506297866	170
bin	0.00017727565862321	150
bin	0.00019593625426776	132
bin	0.00021459684991231	117
bin	0.00023325744555686	129
bin	0.0002519180412014	101
bin	0.00027057863684595	118
bin	0.0002892392324905	95
bin	0.00030789982813505	75
bin	0.0003265604237796	84
bin	0.00034522101942415	88
bin	0.0003638816150687	80
bin	0.00038254221071324	71
bin	0.00040120280635779	67
bin	0.00041986340200234	53743
statistic scenarioPRJP1.node[41].wlan.radio 	minSNIR:histogram
field count 184014
field mean 2485.1467691052
field stddev 29846.876329928
field sum 457301797.57012
field sqrsum 1.6506187185742e+14
field min 0.00016718748945028
field max 753239.71923443
attr source  minSNIR
attr title  "Min SNIR, histogram"
bin	-INF	0
bin	-25026.539227603	0
bin	-21689.252603263	0
bin	-18351.965978924	0
bin	-15014.679354584	0
bin	-11677.392730245	0
bin	-8340.1061059055	0
bin	-5002.8194815661	0
bin	-1665.5328572266	169725
bin	1671.7537671129	6799
bin	5009.0403914524	2317
bin	8346.3270157919	1139
bin	11683.613640131	787
bin	15020.900264471	414
bin	18358.18688881	368
bin	21695.47351315	295
bin	25032.760137489	137
bin	28370.046761829	86
bin	31707.333386168	103
bin	35044.620010508	70
bin	38381.906634847	111
bin	41719.193259187	146
bin	45056.479883526	61
bin	48393.766507866	156
bin	51731.053132205	35
bin	55068.339756545	63
bin	58405.626380884	42
bin	61742.913005224	35
bin	65080.199629563	40
bin	68417.486253902	40
bin	71754.772878242	19
bin	75092.059502581	1026
scalar scenarioPRJP1.node[41].lo0.lo 	droppedPkBitError:count 	0
attr interpolationmode  none
attr source  dropPkBitError
attr title  "packets dropped/bit error, count"
scalar scenarioPRJP1.node[41].lo0.lo 	droppedPkBitError:sum(packetBytes) 	0
attr interpolationmode  none
attr source  dropPkBitError
attr title  "packets dropped/bit error, sum(packetBytes)"
scalar scenarioPRJP1.node[41].lo0.lo 	rcvdPkFromHL:count 	0
attr interpolationmode  none
attr source  packetReceivedFromUpper
attr title  "packets received from higher layer, count"
scalar scenarioPRJP1.node[41].lo0.lo 	rcvdPkFromHL:sum(packetBytes) 	0
attr interpolationmode  none
attr source  packetReceivedFromUpper
attr title  "packets received from higher layer, sum(packetBytes)"
scalar scenarioPRJP1.node[41].lo0.lo 	passedUpPk:count 	0
attr interpolationmode  none
attr source  packetSentToUpper
attr title  "packets passed to higher layer, count"
scalar scenarioPRJP1.node[41].lo0.lo 	passedUpPk:sum(packetBytes) 	0
attr interpolationmode  none
attr source  packetSentToUpper
attr title  "packets passed to higher layer, sum(packetBytes)"
scalar scenarioPRJP1.node[61].app 	"Total sent" 	2628
scalar scenarioPRJP1.node[61].app 	"Total received" 	410
scalar scenarioPRJP1.node[61].app 	"Total deleted" 	82
scalar scenarioPRJP1.node[61].app 	dropPk:count 	82
attr interpolationmode  none
attr source  dropPk
attr title  "packets dropped, count"
scalar scenarioPRJP1.node[61].app 	dropPk:sum(packetBytes) 	41984
attr interpolationmode  none
attr source  dropPk
attr title  "packets dropped, sum(packetBytes)"
scalar scenarioPRJP1.node[61].app 	outOfOrderPk:count 	1
attr interpolationmode  none
attr source  outOfOrderPk
attr title  "packets received out of order, count"
scalar scenarioPRJP1.node[61].app 	outOfOrderPk:sum(packetBytes) 	512
attr interpolationmode  none
attr source  outOfOrderPk
attr title  "packets received out of order, sum(packetBytes)"
scalar scenarioPRJP1.node[61].app 	rcvdPk:count 	410
attr interpolationmode  none
attr source  rcvdPk
attr title  "packets received, count"
scalar scenarioPRJP1.node[61].app 	rcvdPk:sum(packetBytes) 	209920
attr interpolationmode  none
attr source  rcvdPk
attr title  "packets received, sum(packetBytes)"
statistic scenarioPRJP1.node[61].app 	endToEndDelay:histogram
field count 410
field mean 5.0697167815265
field stddev 5.8227397605755
field sum 2078.5838804259
field sqrsum 24404.689593035
field min 0.000958035819
field max 19.888190824403
attr interpolationmode  none
attr source  messageAge(rcvdPk)
attr title  "delay, histogram"
attr unit  s
bin	-INF	0
bin	-9.7319314682735	0
bin	-8.4342128677278	0
bin	-7.1364942671822	0
bin	-5.8387756666365	0
bin	-4.5410570660908	0
bin	-3.2433384655452	0
bin	-1.9456198649995	0
bin	-0.64790126445383	154
bin	0.64981733609183	42
bin	1.9475359366375	28
bin	3.2452545371832	19
bin	4.5429731377288	23
bin	5.8406917382745	12
bin	7.1384103388202	16
bin	8.4361289393658	17
bin	9.7338475399115	12
bin	11.031566140457	20
bin	12.329284741003	20
bin	13.627003341548	11
bin	14.924721942094	13
bin	16.22244054264	6
bin	17.520159143186	10
bin	18.817877743731	7
bin	20.115596344277	0
bin	21.413314944823	0
bin	22.711033545368	0
bin	24.008752145914	0
bin	25.306470746459	0
bin	26.604189347005	0
bin	27.901907947551	0
bin	29.199626548096	0
scalar scenarioPRJP1.node[61].app 	sentPk:count 	2628
attr interpolationmode  none
attr source  sentPk
attr title  "packets sent, count"
scalar scenarioPRJP1.node[61].app 	sentPk:sum(packetBytes) 	1345536
attr interpolationmode  none
attr source  sentPk
attr title  "packets sent, sum(packetBytes)"
scalar scenarioPRJP1.node[61].udp 	droppedPkBadChecksum:count 	0
attr interpolationmode  none
attr title  "packets dropped (checksum error), count"
scalar scenarioPRJP1.node[61].udp 	droppedPkWrongPort:count 	0
attr interpolationmode  none
attr title  "packets dropped (wrong port), count"
scalar scenarioPRJP1.node[61].udp 	passedUpPk:count 	493
attr interpolationmode  none
attr title  "packets passed up, count"
scalar scenarioPRJP1.node[61].udp 	rcvdPk:count 	493
attr interpolationmode  none
attr source  rcvdPk
attr title  "packets received, count"
scalar scenarioPRJP1.node[61].udp 	rcvdPk:sum(packetBytes) 	256360
attr interpolationmode  none
attr source  rcvdPk
attr title  "packets received, sum(packetBytes)"
scalar scenarioPRJP1.node[61].udp 	sentPk:count 	2628
attr interpolationmode  none
attr source  sentPk
attr title  "packets sent, count"
scalar scenarioPRJP1.node[61].udp 	sentPk:sum(packetBytes) 	1366560
attr interpolationmode  none
attr source  sentPk
attr title  "packets sent, sum(packetBytes)"
scalar scenarioPRJP1.node[61].networkLayer.arp 	failedARPResolution:count 	6
attr title  "ARP failed resolutions, count"
scalar scenarioPRJP1.node[61].networkLayer.arp 	completedARPResolution:count 	652
attr title  "ARP completed resolutions, count"
scalar scenarioPRJP1.node[61].networkLayer.arp 	initiatedARPResolution:count 	80
attr title  "ARP initiated resolutions, count"
scalar scenarioPRJP1.node[61].networkLayer.arp 	sentReply:count 	72
attr title  "ARP replies sent, count"
scalar scenarioPRJP1.node[61].networkLayer.arp 	sentReq:count 	134
attr title  "ARP request sent, count"
scalar scenarioPRJP1.node[61].mobility 	startTime 	7.3
scalar scenarioPRJP1.node[61].mobility 	totalTime 	942.7
scalar scenarioPRJP1.node[61].mobility 	stopTime 	950
scalar scenarioPRJP1.node[61].mobility 	minSpeed 	2.4764785282585e-13
scalar scenarioPRJP1.node[61].mobility 	maxSpeed 	17.421797537951
scalar scenarioPRJP1.node[61].mobility 	totalDistance 	10672.858215974
scalar scenarioPRJP1.node[61].mobility 	totalCO2Emission 	2641.3348295719
scalar scenarioPRJP1.node[61].wlan.mgmt 	dataQueueLen:max 	34
attr interpolationmode  sample-hold
attr title  "data queue length, max"
scalar scenarioPRJP1.node[61].wlan.mgmt 	dataQueueLen:timeavg 	0
attr interpolationmode  sample-hold
attr title  "data queue length, timeavg"
scalar scenarioPRJP1.node[61].wlan.mgmt 	dropPkByQueue:count 	0
attr interpolationmode  none
attr source  dropPkByQueue
attr title  "packets dropped by queue, count"
scalar scenarioPRJP1.node[61].wlan.mgmt 	dropPkByQueue:sum(packetBytes) 	0
attr interpolationmode  none
attr source  dropPkByQueue
attr title  "packets dropped by queue, sum(packetBytes)"
scalar scenarioPRJP1.node[61].wlan.mac 	"number of received packets" 	4402
scalar scenarioPRJP1.node[61].wlan.mac 	"number of collisions" 	48786
scalar scenarioPRJP1.node[61].wlan.mac 	"number of internal collisions" 	0
scalar scenarioPRJP1.node[61].wlan.mac 	"number of retry for AC 0" 	10896
scalar scenarioPRJP1.node[61].wlan.mac 	"number of retry for AC 1" 	0
scalar scenarioPRJP1.node[61].wlan.mac 	"number of retry for AC 2" 	0
scalar scenarioPRJP1.node[61].wlan.mac 	"number of retry for AC 3" 	0
scalar scenarioPRJP1.node[61].wlan.mac 	"sent and received bits" 	21019728
scalar scenarioPRJP1.node[61].wlan.mac 	"sent packet within AC 0" 	943
scalar scenarioPRJP1.node[61].wlan.mac 	"sent packet within AC 1" 	1
scalar scenarioPRJP1.node[61].wlan.mac 	"sent packet within AC 2" 	0
scalar scenarioPRJP1.node[61].wlan.mac 	"sent packet within AC 3" 	0
scalar scenarioPRJP1.node[61].wlan.mac 	"sent in TXOP " 	0
scalar scenarioPRJP1.node[61].wlan.mac 	"sentWithoutRetry AC 0" 	723
scalar scenarioPRJP1.node[61].wlan.mac 	"sentWithoutRetry AC 1" 	1
scalar scenarioPRJP1.node[61].wlan.mac 	"sentWithoutRetry AC 2" 	0
scalar scenarioPRJP1.node[61].wlan.mac 	"sentWithoutRetry AC 3" 	0
scalar scenarioPRJP1.node[61].wlan.mac 	"numGivenUp AC 0" 	1725
scalar scenarioPRJP1.node[61].wlan.mac 	"numGivenUp AC 1" 	0
scalar scenarioPRJP1.node[61].wlan.mac 	"numGivenUp AC 2" 	0
scalar scenarioPRJP1.node[61].wlan.mac 	"numGivenUp AC 3" 	0
scalar scenarioPRJP1.node[61].wlan.mac 	"numDropped AC 0" 	0
scalar scenarioPRJP1.node[61].wlan.mac 	"numDropped AC 1" 	0
scalar scenarioPRJP1.node[61].wlan.mac 	"numDropped AC 2" 	0
scalar scenarioPRJP1.node[61].wlan.mac 	"numDropped AC 3" 	0
scalar scenarioPRJP1.node[61].wlan.mac 	rcvdPkFromLL:count 	184693
attr interpolationmode  none
attr source  packetReceivedFromLower
attr title  "packets received from lower layer, count"
scalar scenarioPRJP1.node[61].wlan.mac 	rcvdPkFromLL:sum(packetBytes) 	57921704
attr interpolationmode  none
attr source  packetReceivedFromLower
attr title  "packets received from lower layer, sum(packetBytes)"
scalar scenarioPRJP1.node[61].wlan.mac 	sentDownPk:count 	32814
attr interpolationmode  none
attr source  packetSentToLower
attr title  "packets sent to lower layer, count"
scalar scenarioPRJP1.node[61].wlan.mac 	sentDownPk:sum(packetBytes) 	9674940
attr interpolationmode  none
attr source  packetSentToLower
attr title  "packets sent to lower layer, sum(packetBytes)"
scalar scenarioPRJP1.node[61].wlan.mac 	rcvdPkFromHL:count 	17517
attr interpolationmode  none
attr source  packetReceivedFromUpper
attr title  "packets received from higher layer, count"
scalar scenarioPRJP1.node[61].wlan.mac 	rcvdPkFromHL:sum(packetBytes) 	3581807
attr interpolationmode  none
attr source  packetReceivedFromUpper
attr title  "packets received from higher layer, sum(packetBytes)"
scalar scenarioPRJP1.node[61].wlan.mac 	passedUpPk:count 	54839
attr interpolationmode  none
attr source  packetSentToUpper
attr title  "packets passed to higher layer, count"
scalar scenarioPRJP1.node[61].wlan.mac 	passedUpPk:sum(packetBytes) 	8814900
attr interpolationmode  none
attr source  packetSentToUpper
attr title  "packets passed to higher layer, sum(packetBytes)"
statistic scenarioPRJP1.node[61].wlan.radio 	radioChannel:histogram
field count 1
field mean 3
field stddev nan
field sum 3
field sqrsum 9
field min 3
field max 3
attr interpolationmode  sample-hold
attr source  radioChannelChanged
attr title  "Radio channel, histogram"
bin	-INF	0
bin	2	0
bin	3	1
bin	4	0
scalar scenarioPRJP1.node[61].wlan.radio 	transmissionState:count 	131256
attr interpolationmode  sample-hold
attr source  transmissionStateChanged
attr title  "Radio transmission state, count"
scalar scenarioPRJP1.node[61].wlan.radio 	receptionState:count 	448353
attr interpolationmode  sample-hold
attr source  receptionStateChanged
attr title  "Radio reception state, count"
scalar scenarioPRJP1.node[61].wlan.radio 	radioMode:count 	65630
attr interpolationmode  sample-hold
attr source  radioModeChanged
attr title  "Radio mode, count"
statistic scenarioPRJP1.node[61].wlan.radio 	symbolErrorRate:histogram
field count 0
field mean nan
field stddev nan
field sum 0
field sqrsum 0
field min nan
field max nan
attr source  symbolErrorRate
attr title  "Symbol error rate, histogram"
bin	-INF	0
bin	-0.5	0
bin	-0.46666666666667	0
bin	-0.43333333333333	0
bin	-0.4	0
bin	-0.36666666666667	0
bin	-0.33333333333333	0
bin	-0.3	0
bin	-0.26666666666667	0
bin	-0.23333333333333	0
bin	-0.2	0
bin	-0.16666666666667	0
bin	-0.13333333333333	0
bin	-0.1	0
bin	-0.066666666666667	0
bin	-0.033333333333333	0
bin	0	0
bin	0.033333333333333	0
bin	0.066666666666667	0
bin	0.1	0
bin	0.13333333333333	0
bin	0.16666666666667	0
bin	0.2	0
bin	0.23333333333333	0
bin	0.26666666666667	0
bin	0.3	0
bin	0.33333333333333	0
bin	0.36666666666667	0
bin	0.4	0
bin	0.43333333333333	0
bin	0.46666666666667	0
bin	0.5	0
statistic scenarioPRJP1.node[61].wlan.radio 	bitErrorRate:histogram
field count 0
field mean nan
field stddev nan
field sum 0
field sqrsum 0
field min nan
field max nan
attr source  bitErrorRate
attr title  "Bit error rate, histogram"
bin	-INF	0
bin	-0.5	0
bin	-0.46666666666667	0
bin	-0.43333333333333	0
bin	-0.4	0
bin	-0.36666666666667	0
bin	-0.33333333333333	0
bin	-0.3	0
bin	-0.26666666666667	0
bin	-0.23333333333333	0
bin	-0.2	0
bin	-0.16666666666667	0
bin	-0.13333333333333	0
bin	-0.1	0
bin	-0.066666666666667	0
bin	-0.033333333333333	0
bin	0	0
bin	0.033333333333333	0
bin	0.066666666666667	0
bin	0.1	0
bin	0.13333333333333	0
bin	0.16666666666667	0
bin	0.2	0
bin	0.23333333333333	0
bin	0.26666666666667	0
bin	0.3	0
bin	0.33333333333333	0
bin	0.36666666666667	0
bin	0.4	0
bin	0.43333333333333	0
bin	0.46666666666667	0
bin	0.5	0
statistic scenarioPRJP1.node[61].wlan.radio 	packetErrorRate:histogram
field count 184693
field mean 0.2395725822747
field stddev 0.41637691970093
field sum 44247.378938062
field sqrsum 42620.46271442
field min 0
field max 1
attr source  packetErrorRate
attr title  "Packet error rate, histogram"
bin	-INF	0
bin	-0.49999999999963	0
bin	-0.43333333333301	0
bin	-0.3666666666664	0
bin	-0.29999999999978	0
bin	-0.23333333333316	0
bin	-0.16666666666654	0
bin	-0.099999999999926	0
bin	-0.033333333333309	133675
bin	0.033333333333309	2847
bin	0.099999999999926	1306
bin	0.16666666666654	871
bin	0.23333333333316	720
bin	0.29999999999978	586
bin	0.3666666666664	508
bin	0.43333333333301	443
bin	0.49999999999963	447
bin	0.56666666666625	431
bin	0.63333333333286	399
bin	0.69999999999948	441
bin	0.7666666666661	489
bin	0.83333333333272	596
bin	0.89999999999933	858
bin	0.96666666666595	40076
bin	1.0333333333326	0
bin	1.0999999999992	0
bin	1.1666666666658	0
bin	1.2333333333324	0
bin	1.299999999999	0
bin	1.3666666666657	0
bin	1.4333333333323	0
bin	1.4999999999989	0
statistic scenarioPRJP1.node[61].wlan.radio 	minSNIR:histogram
field count 184693
field mean 1202.2016838572
field stddev 16607.09224435
field sum 222038235.59663
field sqrsum 51204159593054
field min 0.00016970126675788
field max 821636.92575853
attr source  minSNIR
attr title  "Min SNIR, histogram"
bin	-INF	0
bin	-4126.4788126048	0
bin	-3576.0810401055	0
bin	-3025.6832676062	0
bin	-2475.2854951068	0
bin	-1924.8877226075	0
bin	-1374.4899501081	0
bin	-824.09217760879	0
bin	-273.69440510945	160908
bin	276.70336738989	10218
bin	827.10113988924	3306
bin	1377.4989123886	1670
bin	1927.8966848879	1010
bin	2478.2944573873	972
bin	3028.6922298866	601
bin	3579.0900023859	504
bin	4129.4877748853	433
bin	4679.8855473846	363
bin	5230.283319884	262
bin	5780.6810923833	213
bin	6331.0788648827	181
bin	6881.476637382	199
bin	7431.8744098813	195
bin	7982.2721823807	253
bin	8532.66995488	136
bin	9083.0677273794	121
bin	9633.4654998787	101
bin	10183.863272378	108
bin	10734.261044877	115
bin	11284.658817377	123
bin	11835.056589876	158
bin	12385.454362375	2543
scalar scenarioPRJP1.node[61].lo0.lo 	droppedPkBitError:count 	0
attr interpolationmode  none
attr source  dropPkBitError
attr title  "packets dropped/bit error, count"
scalar scenarioPRJP1.node[61].lo0.lo 	droppedPkBitError:sum(packetBytes) 	0
attr interpolationmode  none
attr source  dropPkBitError
attr title  "packets dropped/bit error, sum(packetBytes)"
scalar scenarioPRJP1.node[61].lo0.lo 	rcvdPkFromHL:count 	0
attr interpolationmode  none
attr source  packetReceivedFromUpper
attr title  "packets received from higher layer, count"
scalar scenarioPRJP1.node[61].lo0.lo 	rcvdPkFromHL:sum(packetBytes) 	0
attr interpolationmode  none
attr source  packetReceivedFromUpper
attr title  "packets received from higher layer, sum(packetBytes)"
scalar scenarioPRJP1.node[61].lo0.lo 	passedUpPk:count 	0
attr interpolationmode  none
attr source  packetSentToUpper
attr title  "packets passed to higher layer, count"
scalar scenarioPRJP1.node[61].lo0.lo 	passedUpPk:sum(packetBytes) 	0
attr interpolationmode  none
attr source  packetSentToUpper
attr title  "packets passed to higher layer, sum(packetBytes)"
scalar scenarioPRJP1.node[81].app 	"Total sent" 	2613
scalar scenarioPRJP1.node[81].app 	"Total received" 	450
scalar scenarioPRJP1.node[81].app 	"Total deleted" 	95
scalar scenarioPRJP1.node[81].app 	dropPk:count 	95
attr interpolationmode  none
attr source  dropPk
attr title  "packets dropped, count"
scalar scenarioPRJP1.node[81].app 	dropPk:sum(packetBytes) 	48640
attr interpolationmode  none
attr source  dropPk
attr title  "packets dropped, sum(packetBytes)"
scalar scenarioPRJP1.node[81].app 	outOfOrderPk:count 	0
attr interpolationmode  none
attr source  outOfOrderPk
attr title  "packets received out of order, count"
scalar scenarioPRJP1.node[81].app 	outOfOrderPk:sum(packetBytes) 	0
attr interpolationmode  none
attr source  outOfOrderPk
attr title  "packets received out of order, sum(packetBytes)"
scalar scenarioPRJP1.node[81].app 	rcvdPk:count 	450
attr interpolationmode  none
attr source  rcvdPk
attr title  "packets received, count"
scalar scenarioPRJP1.node[81].app 	rcvdPk:sum(packetBytes) 	230400
attr interpolationmode  none
attr source  rcvdPk
attr title  "packets received, sum(packetBytes)"
statistic scenarioPRJP1.node[81].app 	endToEndDelay:histogram
field count 450
field mean 4.5042677398231
field stddev 5.7302498614109
field sum 2026.9204829204
field sqrsum 23873.050342321
field min 0.00094392625
field max 19.981431525131
attr interpolationmode  none
attr source  messageAge(rcvdPk)
attr title  "delay, histogram"
attr unit  s
bin	-INF	0
bin	-9.989298174907	0
bin	-8.6572657437942	0
bin	-7.3252333126814	0
bin	-5.9932008815686	0
bin	-4.6611684504558	0
bin	-3.329136019343	0
bin	-1.9971035882302	0
bin	-0.6650711571174	209
bin	0.6669612739954	34
bin	1.9989937051082	25
bin	3.331026136221	19
bin	4.6630585673338	15
bin	5.9950909984466	24
bin	7.3271234295594	17
bin	8.6591558606722	16
bin	9.991188291785	21
bin	11.323220722898	16
bin	12.655253154011	12
bin	13.987285585123	9
bin	15.319318016236	6
bin	16.651350447349	13
bin	17.983382878462	9
bin	19.315415309575	5
bin	20.647447740687	0
bin	21.9794801718	0
bin	23.311512602913	0
bin	24.643545034026	0
bin	25.975577465139	0
bin	27.307609896251	0
bin	28.639642327364	0
bin	29.971674758477	0
scalar scenarioPRJP1.node[81].app 	sentPk:count 	2613
attr interpolationmode  none
attr source  sentPk
attr title  "packets sent, count"
scalar scenarioPRJP1.node[81].app 	sentPk:sum(packetBytes) 	1337856
attr interpolationmode  none
attr source  sentPk
attr title  "packets sent, sum(packetBytes)"
scalar scenarioPRJP1.node[81].udp 	droppedPkBadChecksum:count 	0
attr interpolationmode  none
attr title  "packets dropped (checksum error), count"
scalar scenarioPRJP1.node[81].udp 	droppedPkWrongPort:count 	0
attr interpolationmode  none
attr title  "packets dropped (wrong port), count"
scalar scenarioPRJP1.node[81].udp 	passedUpPk:count 	545
attr interpolationmode  none
attr title  "packets passed up, count"
scalar scenarioPRJP1.node[81].udp 	rcvdPk:count 	545
attr interpolationmode  none
attr source  rcvdPk
attr title  "packets received, count"
scalar scenarioPRJP1.node[81].udp 	rcvdPk:sum(packetBytes) 	283400
attr interpolationmode  none
attr source  rcvdPk
attr title  "packets received, sum(packetBytes)"
scalar scenarioPRJP1.node[81].udp 	sentPk:count 	2613
attr interpolationmode  none
attr source  sentPk
attr title  "packets sent, count"
scalar scenarioPRJP1.node[81].udp 	sentPk:sum(packetBytes) 	1358760
attr interpolationmode  none
attr source  sentPk
attr title  "packets sent, sum(packetBytes)"
scalar scenarioPRJP1.node[81].networkLayer.arp 	failedARPResolution:count 	11
attr title  "ARP failed resolutions, count"
scalar scenarioPRJP1.node[81].networkLayer.arp 	completedARPResolution:count 	915
attr title  "ARP completed resolutions, count"
scalar scenarioPRJP1.node[81].networkLayer.arp 	initiatedARPResolution:count 	94
attr title  "ARP initiated resolutions, count"
scalar scenarioPRJP1.node[81].networkLayer.arp 	sentReply:count 	83
attr title  "ARP replies sent, count"
scalar scenarioPRJP1.node[81].networkLayer.arp 	sentReq:count 	162
attr title  "ARP request sent, count"
scalar scenarioPRJP1.node[81].mobility 	startTime 	9.7
scalar scenarioPRJP1.node[81].mobility 	totalTime 	940.3
scalar scenarioPRJP1.node[81].mobility 	stopTime 	950
scalar scenarioPRJP1.node[81].mobility 	minSpeed 	2.4754526513999e-13
scalar scenarioPRJP1.node[81].mobility 	maxSpeed 	18.622717793314
scalar scenarioPRJP1.node[81].mobility 	totalDistance 	8511.3040570724
scalar scenarioPRJP1.node[81].mobility 	totalCO2Emission 	2475.0852811951
scalar scenarioPRJP1.node[81].wlan.mgmt 	dataQueueLen:max 	46
attr interpolationmode  sample-hold
attr title  "data queue length, max"
scalar scenarioPRJP1.node[81].wlan.mgmt 	dataQueueLen:timeavg 	0.00062304329243114
attr interpolationmode  sample-hold
attr title  "data queue length, timeavg"
scalar scenarioPRJP1.node[81].wlan.mgmt 	dropPkByQueue:count 	0
attr interpolationmode  none
attr source  dropPkByQueue
attr title  "packets dropped by queue, count"
scalar scenarioPRJP1.node[81].wlan.mgmt 	dropPkByQueue:sum(packetBytes) 	0
attr interpolationmode  none
attr source  dropPkByQueue
attr title  "packets dropped by queue, sum(packetBytes)"
scalar scenarioPRJP1.node[81].wlan.mac 	"number of received packets" 	6133
scalar scenarioPRJP1.node[81].wlan.mac 	"number of collisions" 	67647
scalar scenarioPRJP1.node[81].wlan.mac 	"number of internal collisions" 	1
scalar scenarioPRJP1.node[81].wlan.mac 	"number of retry for AC 0" 	12815
scalar scenarioPRJP1.node[81].wlan.mac 	"number of retry for AC 1" 	12
scalar scenarioPRJP1.node[81].wlan.mac 	"number of retry for AC 2" 	0
scalar scenarioPRJP1.node[81].wlan.mac 	"number of retry for AC 3" 	0
scalar scenarioPRJP1.node[81].wlan.mac 	"sent and received bits" 	22888104
scalar scenarioPRJP1.node[81].wlan.mac 	"sent packet within AC 0" 	1220
scalar scenarioPRJP1.node[81].wlan.mac 	"sent packet within AC 1" 	0
scalar scenarioPRJP1.node[81].wlan.mac 	"sent packet within AC 2" 	0
scalar scenarioPRJP1.node[81].wlan.mac 	"sent packet within AC 3" 	0
scalar scenarioPRJP1.node[81].wlan.mac 	"sent in TXOP " 	0
scalar scenarioPRJP1.node[81].wlan.mac 	"sentWithoutRetry AC 0" 	958
scalar scenarioPRJP1.node[81].wlan.mac 	"sentWithoutRetry AC 1" 	0
scalar scenarioPRJP1.node[81].wlan.mac 	"sentWithoutRetry AC 2" 	0
scalar scenarioPRJP1.node[81].wlan.mac 	"sentWithoutRetry AC 3" 	0
scalar scenarioPRJP1.node[81].wlan.mac 	"numGivenUp AC 0" 	2026
scalar scenarioPRJP1.node[81].wlan.mac 	"numGivenUp AC 1" 	2
scalar scenarioPRJP1.node[81].wlan.mac 	"numGivenUp AC 2" 	0
scalar scenarioPRJP1.node[81].wlan.mac 	"numGivenUp AC 3" 	0
scalar scenarioPRJP1.node[81].wlan.mac 	"numDropped AC 0" 	12
scalar scenarioPRJP1.node[81].wlan.mac 	"numDropped AC 1" 	0
scalar scenarioPRJP1.node[81].wlan.mac 	"numDropped AC 2" 	0
scalar scenarioPRJP1.node[81].wlan.mac 	"numDropped AC 3" 	0
scalar scenarioPRJP1.node[81].wlan.mac 	rcvdPkFromLL:count 	236583
attr interpolationmode  none
attr source  packetReceivedFromLower
attr title  "packets received from lower layer, count"
scalar scenarioPRJP1.node[81].wlan.mac 	rcvdPkFromLL:sum(packetBytes) 	73692263
attr interpolationmode  none
attr source  packetReceivedFromLower
attr title  "packets received from lower layer, sum(packetBytes)"
scalar scenarioPRJP1.node[81].wlan.mac 	sentDownPk:count 	37526
attr interpolationmode  none
attr source  packetSentToLower
attr title  "packets sent to lower layer, count"
scalar scenarioPRJP1.node[81].wlan.mac 	sentDownPk:sum(packetBytes) 	11169224
attr interpolationmode  none
attr source  packetSentToLower
attr title  "packets sent to lower layer, sum(packetBytes)"
scalar scenarioPRJP1.node[81].wlan.mac 	rcvdPkFromHL:count 	18579
attr interpolationmode  none
attr source  packetReceivedFromUpper
attr title  "packets received from higher layer, count"
scalar scenarioPRJP1.node[81].wlan.mac 	rcvdPkFromHL:sum(packetBytes) 	3986973
attr interpolationmode  none
attr source  packetReceivedFromUpper
attr title  "packets received from higher layer, sum(packetBytes)"
scalar scenarioPRJP1.node[81].wlan.mac 	passedUpPk:count 	72514
attr interpolationmode  none
attr source  packetSentToUpper
attr title  "packets passed to higher layer, count"
scalar scenarioPRJP1.node[81].wlan.mac 	passedUpPk:sum(packetBytes) 	11224620
attr interpolationmode  none
attr source  packetSentToUpper
attr title  "packets passed to higher layer, sum(packetBytes)"
statistic scenarioPRJP1.node[81].wlan.radio 	radioChannel:histogram
field count 1
field mean 3
field stddev nan
field sum 3
field sqrsum 9
field min 3
field max 3
attr interpolationmode  sample-hold
attr source  radioChannelChanged
attr title  "Radio channel, histogram"
bin	-INF	0
bin	2	0
bin	3	1
bin	4	0
scalar scenarioPRJP1.node[81].wlan.radio 	transmissionState:count 	150104
attr interpolationmode  sample-hold
attr source  transmissionStateChanged
attr title  "Radio transmission state, count"
scalar scenarioPRJP1.node[81].wlan.radio 	receptionState:count 	568638
attr interpolationmode  sample-hold
attr source  receptionStateChanged
attr title  "Radio reception state, count"
scalar scenarioPRJP1.node[81].wlan.radio 	radioMode:count 	75054
attr interpolationmode  sample-hold
attr source  radioModeChanged
attr title  "Radio mode, count"
statistic scenarioPRJP1.node[81].wlan.radio 	symbolErrorRate:histogram
field count 0
field mean nan
field stddev nan
field sum 0
field sqrsum 0
field min nan
field max nan
attr source  symbolErrorRate
attr title  "Symbol error rate, histogram"
bin	-INF	0
bin	-0.5	0
bin	-0.46666666666667	0
bin	-0.43333333333333	0
bin	-0.4	0
bin	-0.36666666666667	0
bin	-0.33333333333333	0
bin	-0.3	0
bin	-0.26666666666667	0
bin	-0.23333333333333	0
bin	-0.2	0
bin	-0.16666666666667	0
bin	-0.13333333333333	0
bin	-0.1	0
bin	-0.066666666666667	0
bin	-0.033333333333333	0
bin	0	0
bin	0.033333333333333	0
bin	0.066666666666667	0
bin	0.1	0
bin	0.13333333333333	0
bin	0.16666666666667	0
bin	0.2	0
bin	0.23333333333333	0
bin	0.26666666666667	0
bin	0.3	0
bin	0.33333333333333	0
bin	0.36666666666667	0
bin	0.4	0
bin	0.43333333333333	0
bin	0.46666666666667	0
bin	0.5	0
statistic scenarioPRJP1.node[81].wlan.radio 	bitErrorRate:histogram
field count 0
field mean nan
field stddev nan
field sum 0
field sqrsum 0
field min nan
field max nan
attr source  bitErrorRate
attr title  "Bit error rate, histogram"
bin	-INF	0
bin	-0.5	0
bin	-0.46666666666667	0
bin	-0.43333333333333	0
bin	-0.4	0
bin	-0.36666666666667	0
bin	-0.33333333333333	0
bin	-0.3	0
bin	-0.26666666666667	0
bin	-0.23333333333333	0
bin	-0.2	0
bin	-0.16666666666667	0
bin	-0.13333333333333	0
bin	-0.1	0
bin	-0.066666666666667	0
bin	-0.033333333333333	0
bin	0	0
bin	0.033333333333333	0
bin	0.066666666666667	0
bin	0.1	0
bin	0.13333333333333	0
bin	0.16666666666667	0
bin	0.2	0
bin	0.23333333333333	0
bin	0.26666666666667	0
bin	0.3	0
bin	0.33333333333333	0
bin	0.36666666666667	0
bin	0.4	0
bin	0.43333333333333	0
bin	0.46666666666667	0
bin	0.5	0
statistic scenarioPRJP1.node[81].wlan.radio 	packetErrorRate:histogram
field count 236583
field mean 0.26287578322191
field stddev 0.43023845470108
field sum 62191.94142199
field sqrsum 60141.296681081
field min 0
field max 1
attr source  packetErrorRate
attr title  "Packet error rate, histogram"
bin	-INF	0
bin	-0.5	0
bin	-0.43333333333333	0
bin	-0.36666666666667	0
bin	-0.3	0
bin	-0.23333333333333	0
bin	-0.16666666666667	0
bin	-0.1	0
bin	-0.033333333333333	166019
bin	0.033333333333333	3300
bin	0.1	1741
bin	0.16666666666667	1095
bin	0.23333333333333	913
bin	0.3	764
bin	0.36666666666667	657
bin	0.43333333333333	558
bin	0.5	572
bin	0.56666666666667	528
bin	0.63333333333333	491
bin	0.7	564
bin	0.76666666666667	617
bin	0.83333333333333	746
bin	0.9	1122
bin	0.96666666666667	56896
bin	1.0333333333333	0
bin	1.1	0
bin	1.1666666666667	0
bin	1.2333333333333	0
bin	1.3	0
bin	1.3666666666667	0
bin	1.4333333333333	0
bin	1.5	0
statistic scenarioPRJP1.node[81].wlan.radio 	minSNIR:histogram
field count 236583
field mean 2199.3842687275
field stddev 29128.851077683
field sum 520336928.44837
field sqrsum 2.0188187377953e+14
field min 0.0001863405826116
field max 1641530.8656277
attr source  minSNIR
attr title  "Min SNIR, histogram"
bin	-INF	0
bin	-15450.264356474	0
bin	-13390.083086073	0
bin	-11329.901815671	0
bin	-9269.7205452693	0
bin	-7209.5392748676	0
bin	-5149.358004466	0
bin	-3089.1767340643	0
bin	-1028.9954636627	216367
bin	1031.185806739	9163
bin	3091.3670771407	3124
bin	5151.5483475423	1624
bin	7211.729617944	963
bin	9271.9108883456	649
bin	11332.092158747	645
bin	13392.273429149	373
bin	15452.454699551	290
bin	17512.635969952	298
bin	19572.817240354	233
bin	21632.998510756	433
bin	23693.179781157	239
bin	25753.361051559	119
bin	27813.542321961	73
bin	29873.723592362	101
bin	31933.904862764	66
bin	33994.086133165	80
bin	36054.267403567	43
bin	38114.448673969	46
bin	40174.62994437	49
bin	42234.811214772	83
bin	44294.992485174	34
bin	46355.173755575	1488
scalar scenarioPRJP1.node[81].lo0.lo 	droppedPkBitError:count 	0
attr interpolationmode  none
attr source  dropPkBitError
attr title  "packets dropped/bit error, count"
scalar scenarioPRJP1.node[81].lo0.lo 	droppedPkBitError:sum(packetBytes) 	0
attr interpolationmode  none
attr source  dropPkBitError
attr title  "packets dropped/bit error, sum(packetBytes)"
scalar scenarioPRJP1.node[81].lo0.lo 	rcvdPkFromHL:count 	0
attr interpolationmode  none
attr source  packetReceivedFromUpper
attr title  "packets received from higher layer, count"
scalar scenarioPRJP1.node[81].lo0.lo 	rcvdPkFromHL:sum(packetBytes) 	0
attr interpolationmode  none
attr source  packetReceivedFromUpper
attr title  "packets received from higher layer, sum(packetBytes)"
scalar scenarioPRJP1.node[81].lo0.lo 	passedUpPk:count 	0
attr interpolationmode  none
attr source  packetSentToUpper
attr title  "packets passed to higher layer, count"
scalar scenarioPRJP1.node[81].lo0.lo 	passedUpPk:sum(packetBytes) 	0
attr interpolationmode  none
attr source  packetSentToUpper
attr title  "packets passed to higher layer, sum(packetBytes)"
scalar scenarioPRJP1.node[1].app 	"Total sent" 	2605
scalar scenarioPRJP1.node[1].app 	"Total received" 	403
scalar scenarioPRJP1.node[1].app 	"Total deleted" 	62
scalar scenarioPRJP1.node[1].app 	dropPk:count 	62
attr interpolationmode  none
attr source  dropPk
attr title  "packets dropped, count"
scalar scenarioPRJP1.node[1].app 	dropPk:sum(packetBytes) 	31744
attr interpolationmode  none
attr source  dropPk
attr title  "packets dropped, sum(packetBytes)"
scalar scenarioPRJP1.node[1].app 	outOfOrderPk:count 	0
attr interpolationmode  none
attr source  outOfOrderPk
attr title  "packets received out of order, count"
scalar scenarioPRJP1.node[1].app 	outOfOrderPk:sum(packetBytes) 	0
attr interpolationmode  none
attr source  outOfOrderPk
attr title  "packets received out of order, sum(packetBytes)"
scalar scenarioPRJP1.node[1].app 	rcvdPk:count 	403
attr interpolationmode  none
attr source  rcvdPk
attr title  "packets received, count"
scalar scenarioPRJP1.node[1].app 	rcvdPk:sum(packetBytes) 	206336
attr interpolationmode  none
attr source  rcvdPk
attr title  "packets received, sum(packetBytes)"
statistic scenarioPRJP1.node[1].app 	endToEndDelay:histogram
field count 403
field mean 4.6438840080808
field stddev 5.6304347465907
field sum 1871.4852552566
field sqrsum 21435.082213363
field min 0.000945166845
field max 19.908701189175
attr interpolationmode  none
attr source  messageAge(rcvdPk)
attr title  "delay, histogram"
attr unit  s
bin	-INF	0
bin	-9.643067346417	0
bin	-8.3571990113154	0
bin	-7.0713306762138	0
bin	-5.7854623411122	0
bin	-4.4995940060106	0
bin	-3.213725670909	0
bin	-1.9278573358074	0
bin	-0.6419890007058	171
bin	0.6438793343958	27
bin	1.9297476694974	27
bin	3.215616004599	26
bin	4.5014843397006	20
bin	5.7873526748022	21
bin	7.0732210099038	8
bin	8.3590893450054	22
bin	9.644957680107	10
bin	10.930826015209	9
bin	12.21669435031	10
bin	13.502562685412	19
bin	14.788431020513	14
bin	16.074299355615	9
bin	17.360167690717	4
bin	18.646036025818	6
bin	19.93190436092	0
bin	21.217772696021	0
bin	22.503641031123	0
bin	23.789509366225	0
bin	25.075377701326	0
bin	26.361246036428	0
bin	27.647114371529	0
bin	28.932982706631	0
scalar scenarioPRJP1.node[1].app 	sentPk:count 	2605
attr interpolationmode  none
attr source  sentPk
attr title  "packets sent, count"
scalar scenarioPRJP1.node[1].app 	sentPk:sum(packetBytes) 	1333760
attr interpolationmode  none
attr source  sentPk
attr title  "packets sent, sum(packetBytes)"
scalar scenarioPRJP1.node[1].udp 	droppedPkBadChecksum:count 	0
attr interpolationmode  none
attr title  "packets dropped (checksum error), count"
scalar scenarioPRJP1.node[1].udp 	droppedPkWrongPort:count 	0
attr interpolationmode  none
attr title  "packets dropped (wrong port), count"
scalar scenarioPRJP1.node[1].udp 	passedUpPk:count 	465
attr interpolationmode  none
attr title  "packets passed up, count"
scalar scenarioPRJP1.node[1].udp 	rcvdPk:count 	465
attr interpolationmode  none
attr source  rcvdPk
attr title  "packets received, count"
scalar scenarioPRJP1.node[1].udp 	rcvdPk:sum(packetBytes) 	241800
attr interpolationmode  none
attr source  rcvdPk
attr title  "packets received, sum(packetBytes)"
scalar scenarioPRJP1.node[1].udp 	sentPk:count 	2605
attr interpolationmode  none
attr source  sentPk
attr title  "packets sent, count"
scalar scenarioPRJP1.node[1].udp 	sentPk:sum(packetBytes) 	1354600
attr interpolationmode  none
attr source  sentPk
attr title  "packets sent, sum(packetBytes)"
scalar scenarioPRJP1.node[1].networkLayer.arp 	failedARPResolution:count 	9
attr title  "ARP failed resolutions, count"
scalar scenarioPRJP1.node[1].networkLayer.arp 	completedARPResolution:count 	779
attr title  "ARP completed resolutions, count"
scalar scenarioPRJP1.node[1].networkLayer.arp 	initiatedARPResolution:count 	99
attr title  "ARP initiated resolutions, count"
scalar scenarioPRJP1.node[1].networkLayer.arp 	sentReply:count 	72
attr title  "ARP replies sent, count"
scalar scenarioPRJP1.node[1].networkLayer.arp 	sentReq:count 	153
attr title  "ARP request sent, count"
scalar scenarioPRJP1.node[1].mobility 	startTime 	0.1
scalar scenarioPRJP1.node[1].mobility 	totalTime 	949.9
scalar scenarioPRJP1.node[1].mobility 	stopTime 	950
scalar scenarioPRJP1.node[1].mobility 	minSpeed 	2.4754270124913e-13
scalar scenarioPRJP1.node[1].mobility 	maxSpeed 	17.107549703515
scalar scenarioPRJP1.node[1].mobility 	totalDistance 	9564.0331797856
scalar scenarioPRJP1.node[1].mobility 	totalCO2Emission 	2552.601273325
scalar scenarioPRJP1.node[1].wlan.mgmt 	dataQueueLen:max 	46
attr interpolationmode  sample-hold
attr title  "data queue length, max"
scalar scenarioPRJP1.node[1].wlan.mgmt 	dataQueueLen:timeavg 	0.0017219962021581
attr interpolationmode  sample-hold
attr title  "data queue length, timeavg"
scalar scenarioPRJP1.node[1].wlan.mgmt 	dropPkByQueue:count 	0
attr interpolationmode  none
attr source  dropPkByQueue
attr title  "packets dropped by queue, count"
scalar scenarioPRJP1.node[1].wlan.mgmt 	dropPkByQueue:sum(packetBytes) 	0
attr interpolationmode  none
attr source  dropPkByQueue
attr title  "packets dropped by queue, sum(packetBytes)"
scalar scenarioPRJP1.node[1].wlan.mac 	"number of received packets" 	6261
scalar scenarioPRJP1.node[1].wlan.mac 	"number of collisions" 	59770
scalar scenarioPRJP1.node[1].wlan.mac 	"number of internal collisions" 	0
scalar scenarioPRJP1.node[1].wlan.mac 	"number of retry for AC 0" 	14235
scalar scenarioPRJP1.node[1].wlan.mac 	"number of retry for AC 1" 	0
scalar scenarioPRJP1.node[1].wlan.mac 	"number of retry for AC 2" 	0
scalar scenarioPRJP1.node[1].wlan.mac 	"number of retry for AC 3" 	0
scalar scenarioPRJP1.node[1].wlan.mac 	"sent and received bits" 	22246472
scalar scenarioPRJP1.node[1].wlan.mac 	"sent packet within AC 0" 	1172
scalar scenarioPRJP1.node[1].wlan.mac 	"sent packet within AC 1" 	0
scalar scenarioPRJP1.node[1].wlan.mac 	"sent packet within AC 2" 	0
scalar scenarioPRJP1.node[1].wlan.mac 	"sent packet within AC 3" 	0
scalar scenarioPRJP1.node[1].wlan.mac 	"sent in TXOP " 	0
scalar scenarioPRJP1.node[1].wlan.mac 	"sentWithoutRetry AC 0" 	948
scalar scenarioPRJP1.node[1].wlan.mac 	"sentWithoutRetry AC 1" 	0
scalar scenarioPRJP1.node[1].wlan.mac 	"sentWithoutRetry AC 2" 	0
scalar scenarioPRJP1.node[1].wlan.mac 	"sentWithoutRetry AC 3" 	0
scalar scenarioPRJP1.node[1].wlan.mac 	"numGivenUp AC 0" 	2276
scalar scenarioPRJP1.node[1].wlan.mac 	"numGivenUp AC 1" 	0
scalar scenarioPRJP1.node[1].wlan.mac 	"numGivenUp AC 2" 	0
scalar scenarioPRJP1.node[1].wlan.mac 	"numGivenUp AC 3" 	0
scalar scenarioPRJP1.node[1].wlan.mac 	"numDropped AC 0" 	13
scalar scenarioPRJP1.node[1].wlan.mac 	"numDropped AC 1" 	0
scalar scenarioPRJP1.node[1].wlan.mac 	"numDropped AC 2" 	0
scalar scenarioPRJP1.node[1].wlan.mac 	"numDropped AC 3" 	0
scalar scenarioPRJP1.node[1].wlan.mac 	rcvdPkFromLL:count 	214673
attr interpolationmode  none
attr source  packetReceivedFromLower
attr title  "packets received from lower layer, count"
scalar scenarioPRJP1.node[1].wlan.mac 	rcvdPkFromLL:sum(packetBytes) 	66014205
attr interpolationmode  none
attr source  packetReceivedFromLower
attr title  "packets received from lower layer, sum(packetBytes)"
scalar scenarioPRJP1.node[1].wlan.mac 	sentDownPk:count 	39038
attr interpolationmode  none
attr source  packetSentToLower
attr title  "packets sent to lower layer, count"
scalar scenarioPRJP1.node[1].wlan.mac 	sentDownPk:sum(packetBytes) 	12122514
attr interpolationmode  none
attr source  packetSentToLower
attr title  "packets sent to lower layer, sum(packetBytes)"
scalar scenarioPRJP1.node[1].wlan.mac 	rcvdPkFromHL:count 	18555
attr interpolationmode  none
attr source  packetReceivedFromUpper
attr title  "packets received from higher layer, count"
scalar scenarioPRJP1.node[1].wlan.mac 	rcvdPkFromHL:sum(packetBytes) 	4061552
[...]
statistic scenarioPRJP1.node[76].wlan.radio 	radioChannel:histogram
field count 1
field mean 3
field stddev nan
field sum 3
field sqrsum 9
field min 3
field max 3
attr interpolationmode  sample-hold
attr source  radioChannelChanged
attr title  "Radio channel, histogram"
bin	-INF	0
bin	2	0
bin	3	1
bin	4	0
scalar scenarioPRJP1.node[76].wlan.radio 	transmissionState:count 	133740
attr interpolationmode  sample-hold
attr source  transmissionStateChanged
attr title  "Radio transmission state, count"
scalar scenarioPRJP1.node[76].wlan.radio 	receptionState:count 	465229
attr interpolationmode  sample-hold
attr source  receptionStateChanged
attr title  "Radio reception state, count"
scalar scenarioPRJP1.node[76].wlan.radio 	radioMode:count 	66872
attr interpolationmode  sample-hold
attr source  radioModeChanged
attr title  "Radio mode, count"
statistic scenarioPRJP1.node[76].wlan.radio 	symbolErrorRate:histogram
field count 0
field mean nan
field stddev nan
field sum 0
field sqrsum 0
field min nan
field max nan
attr source  symbolErrorRate
attr title  "Symbol error rate, histogram"
bin	-INF	0
bin	-0.5	0
bin	-0.46666666666667	0
bin	-0.43333333333333	0
bin	-0.4	0
bin	-0.36666666666667	0
bin	-0.33333333333333	0
bin	-0.3	0
bin	-0.26666666666667	0
bin	-0.23333333333333	0
bin	-0.2	0
bin	-0.16666666666667	0
bin	-0.13333333333333	0
bin	-0.1	0
bin	-0.066666666666667	0
bin	-0.033333333333333	0
bin	0	0
bin	0.033333333333333	0
bin	0.066666666666667	0
bin	0.1	0
bin	0.13333333333333	0
bin	0.16666666666667	0
bin	0.2	0
bin	0.23333333333333	0
bin	0.26666666666667	0
bin	0.3	0
bin	0.33333333333333	0
bin	0.36666666666667	0
bin	0.4	0
bin	0.43333333333333	0
bin	0.46666666666667	0
bin	0.5	0
statistic scenarioPRJP1.node[76].wlan.radio 	bitErrorRate:histogram
field count 0
field mean nan
field stddev nan
field sum 0
field sqrsum 0
field min nan
field max nan
attr source  bitErrorRate
attr title  "Bit error rate, histogram"
bin	-INF	0
bin	-0.5	0
bin	-0.46666666666667	0
bin	-0.43333333333333	0
bin	-0.4	0
bin	-0.36666666666667	0
bin	-0.33333333333333	0
bin	-0.3	0
bin	-0.26666666666667	0
bin	-0.23333333333333	0
bin	-0.2	0
bin	-0.16666666666667	0
bin	-0.13333333333333	0
bin	-0.1	0
bin	-0.066666666666667	0
bin	-0.033333333333333	0
bin	0	0
bin	0.033333333333333	0
bin	0.066666666666667	0
bin	0.1	0
bin	0.13333333333333	0
bin	0.16666666666667	0
bin	0.2	0
bin	0.23333333333333	0
bin	0.26666666666667	0
bin	0.3	0
bin	0.33333333333333	0
bin	0.36666666666667	0
bin	0.4	0
bin	0.43333333333333	0
bin	0.46666666666667	0
bin	0.5	0
statistic scenarioPRJP1.node[76].wlan.radio 	packetErrorRate:histogram
field count 192245
field mean 0.23848640105972
field stddev 0.41637933221318
field sum 45847.818171725
field sqrsum 44263.759531303
field min 0
field max 1
attr source  packetErrorRate
attr title  "Packet error rate, histogram"
bin	-INF	0
bin	-7.7854144914236e-07	0
bin	-6.7473592259004e-07	0
bin	-5.7093039603773e-07	0
bin	-4.6712486948541e-07	0
bin	-3.633193429331e-07	0
bin	-2.5951381638079e-07	0
bin	-1.5570828982847e-07	0
bin	-5.1902763276157e-08	116119
bin	5.1902763276157e-08	1522
bin	1.5570828982847e-07	681
bin	2.5951381638079e-07	536
bin	3.633193429331e-07	362
bin	4.6712486948541e-07	262
bin	5.7093039603773e-07	239
bin	6.7473592259004e-07	211
bin	7.7854144914236e-07	189
bin	8.8234697569467e-07	181
bin	9.8615250224698e-07	140
bin	1.0899580287993e-06	129
bin	1.1937635553516e-06	113
bin	1.2975690819039e-06	115
bin	1.4013746084562e-06	110
bin	1.5051801350086e-06	94
bin	1.6089856615609e-06	112
bin	1.7127911881132e-06	96
bin	1.8165967146655e-06	89
bin	1.9204022412178e-06	102
bin	2.0242077677701e-06	76
bin	2.1280132943224e-06	67
bin	2.2318188208748e-06	86
bin	2.3356243474271e-06	70614
statistic scenarioPRJP1.node[76].wlan.radio 	minSNIR:histogram
field count 192245
field mean 2625.9799289275
field stddev 31407.498435744
field sum 504831511.43667
field sqrsum 1.9096111050459e+14
field min 0.00020318728407144
field max 2150385.8883987
attr source  minSNIR
attr title  "Min SNIR, histogram"
bin	-INF	0
bin	-77007.132023553	0
bin	-66738.977723867	0
bin	-56470.823424181	0
bin	-46202.669124495	0
bin	-35934.514824808	0
bin	-25666.360525122	0
bin	-15398.206225436	0
bin	-5130.0519257498	184706
bin	5138.1023739364	4001
bin	15406.256673623	1068
bin	25674.410973309	388
bin	35942.565272995	240
bin	46210.719572681	285
bin	56478.873872367	173
bin	66747.028172054	115
bin	77015.18247174	97
bin	87283.336771426	143
bin	97551.491071112	80
bin	107819.6453708	81
bin	118087.79967048	42
bin	128355.95397017	33
bin	138624.10826986	87
bin	148892.26256954	45
bin	159160.41686923	45
bin	169428.57116892	144
bin	179696.7254686	8
bin	189964.87976829	6
bin	200233.03406797	13
bin	210501.18836766	10
bin	220769.34266735	9
bin	231037.49696703	426
scalar scenarioPRJP1.node[76].lo0.lo 	droppedPkBitError:count 	0
attr interpolationmode  none
attr source  dropPkBitError
attr title  "packets dropped/bit error, count"
scalar scenarioPRJP1.node[76].lo0.lo 	droppedPkBitError:sum(packetBytes) 	0
attr interpolationmode  none
attr source  dropPkBitError
attr title  "packets dropped/bit error, sum(packetBytes)"
scalar scenarioPRJP1.node[76].lo0.lo 	rcvdPkFromHL:count 	0
attr interpolationmode  none
attr source  packetReceivedFromUpper
attr title  "packets received from higher layer, count"
scalar scenarioPRJP1.node[76].lo0.lo 	rcvdPkFromHL:sum(packetBytes) 	0
attr interpolationmode  none
attr source  packetReceivedFromUpper
attr title  "packets received from higher layer, sum(packetBytes)"
scalar scenarioPRJP1.node[76].lo0.lo 	passedUpPk:count 	0
attr interpolationmode  none
attr source  packetSentToUpper
attr title  "packets passed to higher layer, count"
scalar scenarioPRJP1.node[76].lo0.lo 	passedUpPk:sum(packetBytes) 	0
attr interpolationmode  none
attr source  packetSentToUpper
attr title  "packets passed to higher layer, sum(packetBytes)"
scalar scenarioPRJP1.node[94].app 	"Total sent" 	2602
scalar scenarioPRJP1.node[94].app 	"Total received" 	463
scalar scenarioPRJP1.node[94].app 	"Total deleted" 	64
scalar scenarioPRJP1.node[94].app 	dropPk:count 	64
attr interpolationmode  none
attr source  dropPk
attr title  "packets dropped, count"
scalar scenarioPRJP1.node[94].app 	dropPk:sum(packetBytes) 	32768
attr interpolationmode  none
attr source  dropPk
attr title  "packets dropped, sum(packetBytes)"
scalar scenarioPRJP1.node[94].app 	outOfOrderPk:count 	1
attr interpolationmode  none
attr source  outOfOrderPk
attr title  "packets received out of order, count"
scalar scenarioPRJP1.node[94].app 	outOfOrderPk:sum(packetBytes) 	512
attr interpolationmode  none
attr source  outOfOrderPk
attr title  "packets received out of order, sum(packetBytes)"
scalar scenarioPRJP1.node[94].app 	rcvdPk:count 	463
attr interpolationmode  none
attr source  rcvdPk
attr title  "packets received, count"
scalar scenarioPRJP1.node[94].app 	rcvdPk:sum(packetBytes) 	237056
attr interpolationmode  none
attr source  rcvdPk
attr title  "packets received, sum(packetBytes)"
statistic scenarioPRJP1.node[94].app 	endToEndDelay:histogram
field count 463
field mean 4.3698760886385
field stddev 5.5529718058146
field sum 2023.2526290396
field sqrsum 23087.362379706
field min 0.000945022993
field max 19.790163211029
attr interpolationmode  none
attr source  messageAge(rcvdPk)
attr title  "delay, histogram"
attr unit  s
bin	-INF	0
bin	-8.593678975473	0
bin	-7.4477290961181	0
bin	-6.3017792167631	0
bin	-5.1558293374082	0
bin	-4.0098794580533	0
bin	-2.8639295786983	0
bin	-1.7179796993434	0
bin	-0.57202981998847	194
bin	0.57392005936647	42
bin	1.7198699387214	33
bin	2.8658198180763	23
bin	4.0117696974313	25
bin	5.1577195767862	21
bin	6.3036694561411	13
bin	7.4496193354961	9
bin	8.595569214851	9
bin	9.7415190942059	13
bin	10.887468973561	9
bin	12.033418852916	15
bin	13.179368732271	14
bin	14.325318611626	14
bin	15.471268490981	9
bin	16.617218370336	10
bin	17.76316824969	8
bin	18.909118129045	2
bin	20.0550680084	0
bin	21.201017887755	0
bin	22.34696776711	0
bin	23.492917646465	0
bin	24.63886752582	0
bin	25.784817405175	0
scalar scenarioPRJP1.node[94].app 	sentPk:count 	2602
attr interpolationmode  none
attr source  sentPk
attr title  "packets sent, count"
scalar scenarioPRJP1.node[94].app 	sentPk:sum(packetBytes) 	1332224
attr interpolationmode  none
attr source  sentPk
attr title  "packets sent, sum(packetBytes)"
scalar scenarioPRJP1.node[94].udp 	droppedPkBadChecksum:count 	0
attr interpolationmode  none
attr title  "packets dropped (checksum error), count"
scalar scenarioPRJP1.node[94].udp 	droppedPkWrongPort:count 	0
attr interpolationmode  none
attr title  "packets dropped (wrong port), count"
scalar scenarioPRJP1.node[94].udp 	passedUpPk:count 	528
attr interpolationmode  none
attr title  "packets passed up, count"
scalar scenarioPRJP1.node[94].udp 	rcvdPk:count 	528
attr interpolationmode  none
attr source  rcvdPk
attr title  "packets received, count"
scalar scenarioPRJP1.node[94].udp 	rcvdPk:sum(packetBytes) 	274560
attr interpolationmode  none
attr source  rcvdPk
attr title  "packets received, sum(packetBytes)"
scalar scenarioPRJP1.node[94].udp 	sentPk:count 	2602
attr interpolationmode  none
attr source  sentPk
attr title  "packets sent, count"
scalar scenarioPRJP1.node[94].udp 	sentPk:sum(packetBytes) 	1353040
attr interpolationmode  none
attr source  sentPk
attr title  "packets sent, sum(packetBytes)"
scalar scenarioPRJP1.node[94].networkLayer.arp 	failedARPResolution:count 	13
attr title  "ARP failed resolutions, count"
scalar scenarioPRJP1.node[94].networkLayer.arp 	completedARPResolution:count 	831
attr title  "ARP completed resolutions, count"
scalar scenarioPRJP1.node[94].networkLayer.arp 	initiatedARPResolution:count 	108
attr title  "ARP initiated resolutions, count"
scalar scenarioPRJP1.node[94].networkLayer.arp 	sentReply:count 	78
attr title  "ARP replies sent, count"
scalar scenarioPRJP1.node[94].networkLayer.arp 	sentReq:count 	179
attr title  "ARP request sent, count"
scalar scenarioPRJP1.node[94].mobility 	startTime 	9.7
scalar scenarioPRJP1.node[94].mobility 	totalTime 	940.3
scalar scenarioPRJP1.node[94].mobility 	stopTime 	950
scalar scenarioPRJP1.node[94].mobility 	minSpeed 	2.4756673753867e-13
scalar scenarioPRJP1.node[94].mobility 	maxSpeed 	16.351468571352
scalar scenarioPRJP1.node[94].mobility 	totalDistance 	8783.5407156823
scalar scenarioPRJP1.node[94].mobility 	totalCO2Emission 	2277.4579410712
scalar scenarioPRJP1.node[94].wlan.mgmt 	dataQueueLen:max 	21
attr interpolationmode  sample-hold
attr title  "data queue length, max"
scalar scenarioPRJP1.node[94].wlan.mgmt 	dataQueueLen:timeavg 	0
attr interpolationmode  sample-hold
attr title  "data queue length, timeavg"
scalar scenarioPRJP1.node[94].wlan.mgmt 	dropPkByQueue:count 	0
attr interpolationmode  none
attr source  dropPkByQueue
attr title  "packets dropped by queue, count"
scalar scenarioPRJP1.node[94].wlan.mgmt 	dropPkByQueue:sum(packetBytes) 	0
attr interpolationmode  none
attr source  dropPkByQueue
attr title  "packets dropped by queue, sum(packetBytes)"
scalar scenarioPRJP1.node[94].wlan.mac 	"number of received packets" 	5106
scalar scenarioPRJP1.node[94].wlan.mac 	"number of collisions" 	62077
scalar scenarioPRJP1.node[94].wlan.mac 	"number of internal collisions" 	0
scalar scenarioPRJP1.node[94].wlan.mac 	"number of retry for AC 0" 	12747
scalar scenarioPRJP1.node[94].wlan.mac 	"number of retry for AC 1" 	0
scalar scenarioPRJP1.node[94].wlan.mac 	"number of retry for AC 2" 	0
scalar scenarioPRJP1.node[94].wlan.mac 	"number of retry for AC 3" 	0
scalar scenarioPRJP1.node[94].wlan.mac 	"sent and received bits" 	23248768
scalar scenarioPRJP1.node[94].wlan.mac 	"sent packet within AC 0" 	1137
scalar scenarioPRJP1.node[94].wlan.mac 	"sent packet within AC 1" 	0
scalar scenarioPRJP1.node[94].wlan.mac 	"sent packet within AC 2" 	0
scalar scenarioPRJP1.node[94].wlan.mac 	"sent packet within AC 3" 	0
scalar scenarioPRJP1.node[94].wlan.mac 	"sent in TXOP " 	0
scalar scenarioPRJP1.node[94].wlan.mac 	"sentWithoutRetry AC 0" 	868
scalar scenarioPRJP1.node[94].wlan.mac 	"sentWithoutRetry AC 1" 	0
scalar scenarioPRJP1.node[94].wlan.mac 	"sentWithoutRetry AC 2" 	0
scalar scenarioPRJP1.node[94].wlan.mac 	"sentWithoutRetry AC 3" 	0
scalar scenarioPRJP1.node[94].wlan.mac 	"numGivenUp AC 0" 	2006
scalar scenarioPRJP1.node[94].wlan.mac 	"numGivenUp AC 1" 	0
scalar scenarioPRJP1.node[94].wlan.mac 	"numGivenUp AC 2" 	0
scalar scenarioPRJP1.node[94].wlan.mac 	"numGivenUp AC 3" 	0
scalar scenarioPRJP1.node[94].wlan.mac 	"numDropped AC 0" 	0
scalar scenarioPRJP1.node[94].wlan.mac 	"numDropped AC 1" 	0
scalar scenarioPRJP1.node[94].wlan.mac 	"numDropped AC 2" 	0
scalar scenarioPRJP1.node[94].wlan.mac 	"numDropped AC 3" 	0
scalar scenarioPRJP1.node[94].wlan.mac 	rcvdPkFromLL:count 	225288
attr interpolationmode  none
attr source  packetReceivedFromLower
attr title  "packets received from lower layer, count"
scalar scenarioPRJP1.node[94].wlan.mac 	rcvdPkFromLL:sum(packetBytes) 	70626399
attr interpolationmode  none
attr source  packetReceivedFromLower
attr title  "packets received from lower layer, sum(packetBytes)"
scalar scenarioPRJP1.node[94].wlan.mac 	sentDownPk:count 	36280
attr interpolationmode  none
attr source  packetSentToLower
attr title  "packets sent to lower layer, count"
scalar scenarioPRJP1.node[94].wlan.mac 	sentDownPk:sum(packetBytes) 	11200994
attr interpolationmode  none
attr source  packetSentToLower
attr title  "packets sent to lower layer, sum(packetBytes)"
scalar scenarioPRJP1.node[94].wlan.mac 	rcvdPkFromHL:count 	18427
attr interpolationmode  none
attr source  packetReceivedFromUpper
attr title  "packets received from higher layer, count"
scalar scenarioPRJP1.node[94].wlan.mac 	rcvdPkFromHL:sum(packetBytes) 	4023158
attr interpolationmode  none
attr source  packetReceivedFromUpper
attr title  "packets received from higher layer, sum(packetBytes)"
scalar scenarioPRJP1.node[94].wlan.mac 	passedUpPk:count 	65465
attr interpolationmode  none
attr source  packetSentToUpper
attr title  "packets passed to higher layer, count"
scalar scenarioPRJP1.node[94].wlan.mac 	passedUpPk:sum(packetBytes) 	10758634
attr interpolationmode  none
attr source  packetSentToUpper
attr title  "packets passed to higher layer, sum(packetBytes)"
statistic scenarioPRJP1.node[94].wlan.radio 	radioChannel:histogram
field count 1
field mean 3
field stddev nan
field sum 3
field sqrsum 9
field min 3
field max 3
attr interpolationmode  sample-hold
attr source  radioChannelChanged
attr title  "Radio channel, histogram"
bin	-INF	0
bin	2	0
bin	3	1
bin	4	0
scalar scenarioPRJP1.node[94].wlan.radio 	transmissionState:count 	145120
attr interpolationmode  sample-hold
attr source  transmissionStateChanged
attr title  "Radio transmission state, count"
scalar scenarioPRJP1.node[94].wlan.radio 	receptionState:count 	540396
attr interpolationmode  sample-hold
attr source  receptionStateChanged
attr title  "Radio reception state, count"
scalar scenarioPRJP1.node[94].wlan.radio 	radioMode:count 	72562
attr interpolationmode  sample-hold
attr source  radioModeChanged
attr title  "Radio mode, count"
statistic scenarioPRJP1.node[94].wlan.radio 	symbolErrorRate:histogram
field count 0
field mean nan
field stddev nan
field sum 0
field sqrsum 0
field min nan
field max nan
attr source  symbolErrorRate
attr title  "Symbol error rate, histogram"
bin	-INF	0
bin	-0.5	0
bin	-0.46666666666667	0
bin	-0.43333333333333	0
bin	-0.4	0
bin	-0.36666666666667	0
bin	-0.33333333333333	0
bin	-0.3	0
bin	-0.26666666666667	0
bin	-0.23333333333333	0
bin	-0.2	0
bin	-0.16666666666667	0
bin	-0.13333333333333	0
bin	-0.1	0
bin	-0.066666666666667	0
bin	-0.033333333333333	0
bin	0	0
bin	0.033333333333333	0
bin	0.066666666666667	0
bin	0.1	0
bin	0.13333333333333	0
bin	0.16666666666667	0
bin	0.2	0
bin	0.23333333333333	0
bin	0.26666666666667	0
bin	0.3	0
bin	0.33333333333333	0
bin	0.36666666666667	0
bin	0.4	0
bin	0.43333333333333	0
bin	0.46666666666667	0
bin	0.5	0
statistic scenarioPRJP1.node[94].wlan.radio 	bitErrorRate:histogram
field count 0
field mean nan
field stddev nan
field sum 0
field sqrsum 0
field min nan
field max nan
attr source  bitErrorRate
attr title  "Bit error rate, histogram"
bin	-INF	0
bin	-0.5	0
bin	-0.46666666666667	0
bin	-0.43333333333333	0
bin	-0.4	0
bin	-0.36666666666667	0
bin	-0.33333333333333	0
bin	-0.3	0
bin	-0.26666666666667	0
bin	-0.23333333333333	0
bin	-0.2	0
bin	-0.16666666666667	0
bin	-0.13333333333333	0
bin	-0.1	0
bin	-0.066666666666667	0
bin	-0.033333333333333	0
bin	0	0
bin	0.033333333333333	0
bin	0.066666666666667	0
bin	0.1	0
bin	0.13333333333333	0
bin	0.16666666666667	0
bin	0.2	0
bin	0.23333333333333	0
bin	0.26666666666667	0
bin	0.3	0
bin	0.33333333333333	0
bin	0.36666666666667	0
bin	0.4	0
bin	0.43333333333333	0
bin	0.46666666666667	0
bin	0.5	0
statistic scenarioPRJP1.node[94].wlan.radio 	packetErrorRate:histogram
field count 225288
field mean 0.25055763893249
field stddev 0.42287126192136
field sum 56447.629359823
field sqrsum 54429.229541394
field min 0
field max 1
attr source  packetErrorRate
attr title  "Packet error rate, histogram"
bin	-INF	0
bin	-0.4999828338108	0
bin	-0.43331845596936	0
bin	-0.36665407812792	0
bin	-0.29998970028648	0
bin	-0.23332532244504	0
bin	-0.1666609446036	0
bin	-0.099996566762161	0
bin	-0.03333218892072	160569
bin	0.03333218892072	3339
bin	0.099996566762161	1667
bin	0.1666609446036	1077
bin	0.23332532244504	884
bin	0.29998970028648	726
bin	0.36665407812792	620
bin	0.43331845596936	579
bin	0.4999828338108	553
bin	0.56664721165224	542
bin	0.63331158949369	571
bin	0.69997596733513	519
bin	0.76664034517657	585
bin	0.83330472301801	702
bin	0.89996910085945	1082
bin	0.96663347870089	51273
bin	1.0332978565423	0
bin	1.0999622343838	0
bin	1.1666266122252	0
bin	1.2332909900667	0
bin	1.2999553679081	0
bin	1.3666197457495	0
bin	1.433284123591	0
bin	1.4999485014324	0
statistic scenarioPRJP1.node[94].wlan.radio 	minSNIR:histogram
field count 225288
field mean 1924.4887691416
field stddev 23150.684351793
field sum 433564225.82238
field sqrsum 1.2157790017484e+14
field min 0.00016886042336495
field max 753239.71923443
attr source  minSNIR
attr title  "Min SNIR, histogram"
bin	-INF	0
bin	-18367.753378337	0
bin	-15918.506612506	0
bin	-13469.259846675	0
bin	-11020.013080844	0
bin	-8570.7663150132	0
bin	-6121.5195491822	0
bin	-3672.2727833512	0
bin	-1223.0260175203	208944
bin	1226.2207483107	6851
bin	3675.4675141416	2546
bin	6124.7142799726	1325
bin	8573.9610458036	872
bin	11023.207811635	734
bin	13472.454577466	474
bin	15921.701343296	441
bin	18370.948109127	289
bin	20820.194874958	293
bin	23269.441640789	237
bin	25718.68840662	109
bin	28167.935172451	110
bin	30617.181938282	140
bin	33066.428704113	65
bin	35515.675469944	74
bin	37964.922235775	60
bin	40414.169001606	62
bin	42863.415767437	51
bin	45312.662533268	51
bin	47761.909299099	48
bin	50211.15606493	48
bin	52660.402830761	49
bin	55109.649596592	1415
scalar scenarioPRJP1.node[94].lo0.lo 	droppedPkBitError:count 	0
attr interpolationmode  none
attr source  dropPkBitError
attr title  "packets dropped/bit error, count"
scalar scenarioPRJP1.node[94].lo0.lo 	droppedPkBitError:sum(packetBytes) 	0
attr interpolationmode  none
attr source  dropPkBitError
attr title  "packets dropped/bit error, sum(packetBytes)"
scalar scenarioPRJP1.node[94].lo0.lo 	rcvdPkFromHL:count 	0
attr interpolationmode  none
attr source  packetReceivedFromUpper
attr title  "packets received from higher layer, count"
scalar scenarioPRJP1.node[94].lo0.lo 	rcvdPkFromHL:sum(packetBytes) 	0
attr interpolationmode  none
attr source  packetReceivedFromUpper
attr title  "packets received from higher layer, sum(packetBytes)"
scalar scenarioPRJP1.node[94].lo0.lo 	passedUpPk:count 	0
attr interpolationmode  none
attr source  packetSentToUpper
attr title  "packets passed to higher layer, count"
scalar scenarioPRJP1.node[94].lo0.lo 	passedUpPk:sum(packetBytes) 	0
attr interpolationmode  none
attr source  packetSentToUpper
attr title  "packets passed to higher layer, sum(packetBytes)"
