version 2
run DYMOUM-TRG-100n-1-20150805-00:07:54-16359
attr configname DYMOUM-TRG-100n
attr datetime 20150805-00:07:54
attr experiment DYMOUM-TRG-100n
attr inifile omnetpp.ini
attr iterationvars ""
attr iterationvars2 $repetition=1
attr measurement ""
attr network Prj_Part1_propag.scenarioPRJP1
attr processid 16359
attr repetition 1
attr replication #1
attr resultdir results
attr runnumber 1
attr seedset 1

scalar scenarioPRJP1.node[56].app 	"Total sent" 	362
scalar scenarioPRJP1.node[56].app 	"Total received" 	62
scalar scenarioPRJP1.node[56].app 	"Total deleted" 	11
scalar scenarioPRJP1.node[56].app 	dropPk:count 	11
attr interpolationmode  none
attr source  dropPk
attr title  "packets dropped, count"
scalar scenarioPRJP1.node[56].app 	dropPk:sum(packetBytes) 	5632
attr interpolationmode  none
attr source  dropPk
attr title  "packets dropped, sum(packetBytes)"
scalar scenarioPRJP1.node[56].app 	outOfOrderPk:count 	0
attr interpolationmode  none
attr source  outOfOrderPk
attr title  "packets received out of order, count"
scalar scenarioPRJP1.node[56].app 	outOfOrderPk:sum(packetBytes) 	0
attr interpolationmode  none
attr source  outOfOrderPk
attr title  "packets received out of order, sum(packetBytes)"
scalar scenarioPRJP1.node[56].app 	rcvdPk:count 	62
attr interpolationmode  none
attr source  rcvdPk
attr title  "packets received, count"
scalar scenarioPRJP1.node[56].app 	rcvdPk:sum(packetBytes) 	31744
attr interpolationmode  none
attr source  rcvdPk
attr title  "packets received, sum(packetBytes)"
statistic scenarioPRJP1.node[56].app 	endToEndDelay:histogram
field count 62
field mean 2.9177968724833
field stddev 4.6551477631146
field sum 180.90340609397
field sqrsum 1849.7338350048
field min 0.000997107358
field max 19.094216375884
attr interpolationmode  none
attr source  messageAge(rcvdPk)
attr title  "delay, histogram"
attr unit  s
bin	-INF	0
bin	-9.545612526905	0
bin	-8.2727312423366	0
bin	-6.9998499577682	0
bin	-5.7269686731998	0
bin	-4.4540873886314	0
bin	-3.181206104063	0
bin	-1.9083248194946	0
bin	-0.6354435349262	37
bin	0.6374377496422	4
bin	1.9103190342106	3
bin	3.183200318779	1
bin	4.4560816033474	1
bin	5.7289628879158	3
bin	7.0018441724842	5
bin	8.2747254570526	2
bin	9.547606741621	0
bin	10.820488026189	1
bin	12.093369310758	3
bin	13.366250595326	0
bin	14.639131879895	1
bin	15.912013164463	0
bin	17.184894449031	0
bin	18.4577757336	1
bin	19.730657018168	0
bin	21.003538302737	0
bin	22.276419587305	0
bin	23.549300871873	0
bin	24.822182156442	0
bin	26.09506344101	0
bin	27.367944725579	0
bin	28.640826010147	0
scalar scenarioPRJP1.node[56].app 	sentPk:count 	362
attr interpolationmode  none
attr source  sentPk
attr title  "packets sent, count"
scalar scenarioPRJP1.node[56].app 	sentPk:sum(packetBytes) 	185344
attr interpolationmode  none
attr source  sentPk
attr title  "packets sent, sum(packetBytes)"
scalar scenarioPRJP1.node[56].udp 	droppedPkBadChecksum:count 	0
attr interpolationmode  none
attr title  "packets dropped (checksum error), count"
scalar scenarioPRJP1.node[56].udp 	droppedPkWrongPort:count 	0
attr interpolationmode  none
attr title  "packets dropped (wrong port), count"
scalar scenarioPRJP1.node[56].udp 	passedUpPk:count 	73
attr interpolationmode  none
attr title  "packets passed up, count"
scalar scenarioPRJP1.node[56].udp 	rcvdPk:count 	73
attr interpolationmode  none
attr source  rcvdPk
attr title  "packets received, count"
scalar scenarioPRJP1.node[56].udp 	rcvdPk:sum(packetBytes) 	37960
attr interpolationmode  none
attr source  rcvdPk
attr title  "packets received, sum(packetBytes)"
scalar scenarioPRJP1.node[56].udp 	sentPk:count 	362
attr interpolationmode  none
attr source  sentPk
attr title  "packets sent, count"
scalar scenarioPRJP1.node[56].udp 	sentPk:sum(packetBytes) 	188240
attr interpolationmode  none
attr source  sentPk
attr title  "packets sent, sum(packetBytes)"
scalar scenarioPRJP1.node[56].networkLayer.arp 	failedARPResolution:count 	1
attr title  "ARP failed resolutions, count"
scalar scenarioPRJP1.node[56].networkLayer.arp 	completedARPResolution:count 	129
attr title  "ARP completed resolutions, count"
scalar scenarioPRJP1.node[56].networkLayer.arp 	initiatedARPResolution:count 	18
attr title  "ARP initiated resolutions, count"
scalar scenarioPRJP1.node[56].networkLayer.arp 	sentReply:count 	11
attr title  "ARP replies sent, count"
scalar scenarioPRJP1.node[56].networkLayer.arp 	sentReq:count 	28
attr title  "ARP request sent, count"
scalar scenarioPRJP1.node[56].manetrouting 	"simulated time" 	158.2
scalar scenarioPRJP1.node[56].manetrouting 	"Dymo totalSend " 	510497
scalar scenarioPRJP1.node[56].manetrouting 	"Dymo Rreq send" 	290116
scalar scenarioPRJP1.node[56].manetrouting 	"Dymo Rreq rec" 	228328
scalar scenarioPRJP1.node[56].manetrouting 	"Dymo Rrep send" 	661
scalar scenarioPRJP1.node[56].manetrouting 	"Dymo Rrep rec" 	422
scalar scenarioPRJP1.node[56].manetrouting 	"Dymo Rerr send" 	1033
scalar scenarioPRJP1.node[56].manetrouting 	"Dymo Rerr rec" 	3966
scalar scenarioPRJP1.node[56].mobility 	startTime 	5
scalar scenarioPRJP1.node[56].mobility 	totalTime 	153.1
scalar scenarioPRJP1.node[56].mobility 	stopTime 	158.2
scalar scenarioPRJP1.node[56].mobility 	minSpeed 	2.475667787115e-13
scalar scenarioPRJP1.node[56].mobility 	maxSpeed 	20.418876227242
scalar scenarioPRJP1.node[56].mobility 	totalDistance 	1484.4963644969
scalar scenarioPRJP1.node[56].mobility 	totalCO2Emission 	484.36921009365
scalar scenarioPRJP1.node[56].wlan.mgmt 	dataQueueLen:max 	47
attr interpolationmode  sample-hold
attr title  "data queue length, max"
scalar scenarioPRJP1.node[56].wlan.mgmt 	dataQueueLen:timeavg 	0
attr interpolationmode  sample-hold
attr title  "data queue length, timeavg"
scalar scenarioPRJP1.node[56].wlan.mgmt 	dropPkByQueue:count 	0
attr interpolationmode  none
attr source  dropPkByQueue
attr title  "packets dropped by queue, count"
scalar scenarioPRJP1.node[56].wlan.mgmt 	dropPkByQueue:sum(packetBytes) 	0
attr interpolationmode  none
attr source  dropPkByQueue
attr title  "packets dropped by queue, sum(packetBytes)"
scalar scenarioPRJP1.node[56].wlan.mac 	"number of received packets" 	812
scalar scenarioPRJP1.node[56].wlan.mac 	"number of collisions" 	4849
scalar scenarioPRJP1.node[56].wlan.mac 	"number of internal collisions" 	0
scalar scenarioPRJP1.node[56].wlan.mac 	"number of retry for AC 0" 	1716
scalar scenarioPRJP1.node[56].wlan.mac 	"number of retry for AC 1" 	0
scalar scenarioPRJP1.node[56].wlan.mac 	"number of retry for AC 2" 	0
scalar scenarioPRJP1.node[56].wlan.mac 	"number of retry for AC 3" 	0
scalar scenarioPRJP1.node[56].wlan.mac 	"sent and received bits" 	3226544
scalar scenarioPRJP1.node[56].wlan.mac 	"sent packet within AC 0" 	132
scalar scenarioPRJP1.node[56].wlan.mac 	"sent packet within AC 1" 	0
scalar scenarioPRJP1.node[56].wlan.mac 	"sent packet within AC 2" 	0
scalar scenarioPRJP1.node[56].wlan.mac 	"sent packet within AC 3" 	0
scalar scenarioPRJP1.node[56].wlan.mac 	"sent in TXOP " 	0
scalar scenarioPRJP1.node[56].wlan.mac 	"sentWithoutRetry AC 0" 	101
scalar scenarioPRJP1.node[56].wlan.mac 	"sentWithoutRetry AC 1" 	0
scalar scenarioPRJP1.node[56].wlan.mac 	"sentWithoutRetry AC 2" 	0
scalar scenarioPRJP1.node[56].wlan.mac 	"sentWithoutRetry AC 3" 	0
scalar scenarioPRJP1.node[56].wlan.mac 	"numGivenUp AC 0" 	269
scalar scenarioPRJP1.node[56].wlan.mac 	"numGivenUp AC 1" 	0
scalar scenarioPRJP1.node[56].wlan.mac 	"numGivenUp AC 2" 	0
scalar scenarioPRJP1.node[56].wlan.mac 	"numGivenUp AC 3" 	0
scalar scenarioPRJP1.node[56].wlan.mac 	"numDropped AC 0" 	0
scalar scenarioPRJP1.node[56].wlan.mac 	"numDropped AC 1" 	0
scalar scenarioPRJP1.node[56].wlan.mac 	"numDropped AC 2" 	0
scalar scenarioPRJP1.node[56].wlan.mac 	"numDropped AC 3" 	0
scalar scenarioPRJP1.node[56].wlan.mac 	rcvdPkFromLL:count 	26284
attr interpolationmode  none
attr source  packetReceivedFromLower
attr title  "packets received from lower layer, count"
scalar scenarioPRJP1.node[56].wlan.mac 	rcvdPkFromLL:sum(packetBytes) 	7742469
attr interpolationmode  none
attr source  packetReceivedFromLower
attr title  "packets received from lower layer, sum(packetBytes)"
scalar scenarioPRJP1.node[56].wlan.mac 	sentDownPk:count 	5093
attr interpolationmode  none
attr source  packetSentToLower
attr title  "packets sent to lower layer, count"
scalar scenarioPRJP1.node[56].wlan.mac 	sentDownPk:sum(packetBytes) 	1522127
attr interpolationmode  none
attr source  packetSentToLower
attr title  "packets sent to lower layer, sum(packetBytes)"
scalar scenarioPRJP1.node[56].wlan.mac 	rcvdPkFromHL:count 	2565
attr interpolationmode  none
attr source  packetReceivedFromUpper
attr title  "packets received from higher layer, count"
scalar scenarioPRJP1.node[56].wlan.mac 	rcvdPkFromHL:sum(packetBytes) 	553277
attr interpolationmode  none
attr source  packetReceivedFromUpper
attr title  "packets received from higher layer, sum(packetBytes)"
scalar scenarioPRJP1.node[56].wlan.mac 	passedUpPk:count 	9425
attr interpolationmode  none
attr source  packetSentToUpper
attr title  "packets passed to higher layer, count"
scalar scenarioPRJP1.node[56].wlan.mac 	passedUpPk:sum(packetBytes) 	1513672
attr interpolationmode  none
attr source  packetSentToUpper
attr title  "packets passed to higher layer, sum(packetBytes)"
statistic scenarioPRJP1.node[56].wlan.radio 	radioChannel:histogram
field count 1
field mean 3
field stddev -nan
field sum 3
field sqrsum 9
field min 3
field max 3
attr interpolationmode  sample-hold
attr source  radioChannelChanged
attr title  "Radio channel, histogram"
bin	-INF	0
bin	2	0
bin	3	1
bin	4	0
scalar scenarioPRJP1.node[56].wlan.radio 	transmissionState:count 	20372
attr interpolationmode  sample-hold
attr source  transmissionStateChanged
attr title  "Radio transmission state, count"
scalar scenarioPRJP1.node[56].wlan.radio 	receptionState:count 	63976
attr interpolationmode  sample-hold
attr source  receptionStateChanged
attr title  "Radio reception state, count"
scalar scenarioPRJP1.node[56].wlan.radio 	radioMode:count 	10188
attr interpolationmode  sample-hold
attr source  radioModeChanged
attr title  "Radio mode, count"
statistic scenarioPRJP1.node[56].wlan.radio 	symbolErrorRate:histogram
field count 0
field mean -nan
field stddev -nan
field sum 0
field sqrsum 0
field min -nan
field max -nan
attr source  symbolErrorRate
attr title  "Symbol error rate, histogram"
bin	-INF	0
bin	-0.5	0
bin	-0.46666666666667	0
bin	-0.43333333333333	0
bin	-0.4	0
bin	-0.36666666666667	0
bin	-0.33333333333333	0
bin	-0.3	0
bin	-0.26666666666667	0
bin	-0.23333333333333	0
bin	-0.2	0
bin	-0.16666666666667	0
bin	-0.13333333333333	0
bin	-0.1	0
bin	-0.066666666666667	0
bin	-0.033333333333333	0
bin	0	0
bin	0.033333333333333	0
bin	0.066666666666667	0
bin	0.1	0
bin	0.13333333333333	0
bin	0.16666666666667	0
bin	0.2	0
bin	0.23333333333333	0
bin	0.26666666666667	0
bin	0.3	0
bin	0.33333333333333	0
bin	0.36666666666667	0
bin	0.4	0
bin	0.43333333333333	0
bin	0.46666666666667	0
bin	0.5	0
statistic scenarioPRJP1.node[56].wlan.radio 	bitErrorRate:histogram
field count 0
field mean -nan
field stddev -nan
field sum 0
field sqrsum 0
field min -nan
field max -nan
attr source  bitErrorRate
attr title  "Bit error rate, histogram"
bin	-INF	0
bin	-0.5	0
bin	-0.46666666666667	0
bin	-0.43333333333333	0
bin	-0.4	0
bin	-0.36666666666667	0
bin	-0.33333333333333	0
bin	-0.3	0
bin	-0.26666666666667	0
bin	-0.23333333333333	0
bin	-0.2	0
bin	-0.16666666666667	0
bin	-0.13333333333333	0
bin	-0.1	0
bin	-0.066666666666667	0
bin	-0.033333333333333	0
bin	0	0
bin	0.033333333333333	0
bin	0.066666666666667	0
bin	0.1	0
bin	0.13333333333333	0
bin	0.16666666666667	0
bin	0.2	0
bin	0.23333333333333	0
bin	0.26666666666667	0
bin	0.3	0
bin	0.33333333333333	0
bin	0.36666666666667	0
bin	0.4	0
bin	0.43333333333333	0
bin	0.46666666666667	0
bin	0.5	0
statistic scenarioPRJP1.node[56].wlan.radio 	packetErrorRate:histogram
field count 26284
field mean 0.16430460689429
field stddev 0.35988240890768
field sum 4318.5822876095
field sqrsum 4113.6148629296
field min 0
field max 1
attr source  packetErrorRate
attr title  "Packet error rate, histogram"
bin	-INF	0
bin	-0.5	0
bin	-0.46666666666667	0
bin	-0.43333333333333	0
bin	-0.4	0
bin	-0.36666666666667	0
bin	-0.33333333333333	0
bin	-0.3	0
bin	-0.26666666666667	0
bin	-0.23333333333333	0
bin	-0.2	0
bin	-0.16666666666667	0
bin	-0.13333333333333	0
bin	-0.1	0
bin	-0.066666666666667	0
bin	-0.033333333333333	0
bin	0	21113
bin	0.033333333333333	203
bin	0.066666666666667	133
bin	0.1	102
bin	0.13333333333333	72
bin	0.16666666666667	55
bin	0.2	69
bin	0.23333333333333	53
bin	0.26666666666667	49
bin	0.3	44
bin	0.33333333333333	31
bin	0.36666666666667	34
bin	0.4	34
bin	0.43333333333333	33
bin	0.46666666666667	16
bin	0.5	4243
statistic scenarioPRJP1.node[56].wlan.radio 	minSNIR:histogram
field count 26284
field mean 2667.2602701693
field stddev 35240.887832766
field sum 70106268.941129
field sqrsum 32828379631712
field min 0.00017120623169109
field max 753129.4625882
attr source  minSNIR
attr title  "Min SNIR, histogram"
bin	-INF	0
bin	-16656.374481785	0
bin	-14433.955834674	0
bin	-12211.537187563	0
bin	-9989.1185404526	0
bin	-7766.6998933418	0
bin	-5544.281246231	0
bin	-3321.8625991201	0
bin	-1099.4439520093	24390
bin	1122.9746951016	773
bin	3345.3933422124	307
bin	5567.8119893233	173
bin	7790.2306364341	84
bin	10012.649283545	74
bin	12235.067930656	60
bin	14457.486577767	35
bin	16679.905224877	27
bin	18902.323871988	32
bin	21124.742519099	22
bin	23347.16116621	24
bin	25569.579813321	14
bin	27791.998460432	10
bin	30014.417107542	18
bin	32236.835754653	10
bin	34459.254401764	11
bin	36681.673048875	11
bin	38904.091695986	10
bin	41126.510343097	10
bin	43348.928990208	6
bin	45571.347637318	3
bin	47793.766284429	4
bin	50016.18493154	176
scalar scenarioPRJP1.node[56].lo0.lo 	droppedPkBitError:count 	0
attr interpolationmode  none
attr source  dropPkBitError
attr title  "packets dropped/bit error, count"
scalar scenarioPRJP1.node[56].lo0.lo 	droppedPkBitError:sum(packetBytes) 	0
attr interpolationmode  none
attr source  dropPkBitError
attr title  "packets dropped/bit error, sum(packetBytes)"
scalar scenarioPRJP1.node[56].lo0.lo 	rcvdPkFromHL:count 	0
attr interpolationmode  none
attr source  packetReceivedFromUpper
attr title  "packets received from higher layer, count"
scalar scenarioPRJP1.node[56].lo0.lo 	rcvdPkFromHL:sum(packetBytes) 	0
attr interpolationmode  none
attr source  packetReceivedFromUpper
attr title  "packets received from higher layer, sum(packetBytes)"
scalar scenarioPRJP1.node[56].lo0.lo 	passedUpPk:count 	0
attr interpolationmode  none
attr source  packetSentToUpper
attr title  "packets passed to higher layer, count"
scalar scenarioPRJP1.node[56].lo0.lo 	passedUpPk:sum(packetBytes) 	0
attr interpolationmode  none
attr source  packetSentToUpper
attr title  "packets passed to higher layer, sum(packetBytes)"
scalar scenarioPRJP1.node[97].app 	"Total sent" 	373
scalar scenarioPRJP1.node[97].app 	"Total received" 	56
scalar scenarioPRJP1.node[97].app 	"Total deleted" 	12
scalar scenarioPRJP1.node[97].app 	dropPk:count 	12
attr interpolationmode  none
attr source  dropPk
attr title  "packets dropped, count"
scalar scenarioPRJP1.node[97].app 	dropPk:sum(packetBytes) 	6144
attr interpolationmode  none
attr source  dropPk
attr title  "packets dropped, sum(packetBytes)"
scalar scenarioPRJP1.node[97].app 	outOfOrderPk:count 	0
attr interpolationmode  none
attr source  outOfOrderPk
attr title  "packets received out of order, count"
scalar scenarioPRJP1.node[97].app 	outOfOrderPk:sum(packetBytes) 	0
attr interpolationmode  none
attr source  outOfOrderPk
attr title  "packets received out of order, sum(packetBytes)"
scalar scenarioPRJP1.node[97].app 	rcvdPk:count 	56
attr interpolationmode  none
attr source  rcvdPk
attr title  "packets received, count"
scalar scenarioPRJP1.node[97].app 	rcvdPk:sum(packetBytes) 	28672
attr interpolationmode  none
attr source  rcvdPk
attr title  "packets received, sum(packetBytes)"
statistic scenarioPRJP1.node[97].app 	endToEndDelay:histogram
field count 56
field mean 5.3916652953254
field stddev 5.9292074783495
field sum 301.93325653823
field sqrsum 3561.4756334541
field min 0.000958360297
field max 19.455506808114
attr interpolationmode  none
attr source  messageAge(rcvdPk)
attr title  "delay, histogram"
attr unit  s
bin	-INF	0
bin	-9.7263158636115	0
bin	-8.4293459670904	0
bin	-7.1323760705692	0
bin	-5.8354061740481	0
bin	-4.538436277527	0
bin	-3.2414663810058	0
bin	-1.9444964844847	0
bin	-0.64752658796357	22
bin	0.64944330855757	3
bin	1.9464132050787	3
bin	3.2433831015998	3
bin	4.540352998121	5
bin	5.8373228946421	1
bin	7.1342927911632	3
bin	8.4312626876844	1
bin	9.7282325842055	1
bin	11.025202480727	1
bin	12.322172377248	5
bin	13.619142273769	4
bin	14.91611217029	2
bin	16.213082066811	1
bin	17.510051963332	0
bin	18.807021859853	1
bin	20.103991756375	0
bin	21.400961652896	0
bin	22.697931549417	0
bin	23.994901445938	0
bin	25.291871342459	0
bin	26.58884123898	0
bin	27.885811135501	0
bin	29.182781032022	0
scalar scenarioPRJP1.node[97].app 	sentPk:count 	373
attr interpolationmode  none
attr source  sentPk
attr title  "packets sent, count"
scalar scenarioPRJP1.node[97].app 	sentPk:sum(packetBytes) 	190976
attr interpolationmode  none
attr source  sentPk
attr title  "packets sent, sum(packetBytes)"
scalar scenarioPRJP1.node[97].udp 	droppedPkBadChecksum:count 	0
attr interpolationmode  none
attr title  "packets dropped (checksum error), count"
scalar scenarioPRJP1.node[97].udp 	droppedPkWrongPort:count 	0
attr interpolationmode  none
attr title  "packets dropped (wrong port), count"
scalar scenarioPRJP1.node[97].udp 	passedUpPk:count 	68
attr interpolationmode  none
attr title  "packets passed up, count"
scalar scenarioPRJP1.node[97].udp 	rcvdPk:count 	68
attr interpolationmode  none
attr source  rcvdPk
attr title  "packets received, count"
scalar scenarioPRJP1.node[97].udp 	rcvdPk:sum(packetBytes) 	35360
attr interpolationmode  none
attr source  rcvdPk
attr title  "packets received, sum(packetBytes)"
scalar scenarioPRJP1.node[97].udp 	sentPk:count 	373
attr interpolationmode  none
attr source  sentPk
attr title  "packets sent, count"
scalar scenarioPRJP1.node[97].udp 	sentPk:sum(packetBytes) 	193960
attr interpolationmode  none
attr source  sentPk
attr title  "packets sent, sum(packetBytes)"
scalar scenarioPRJP1.node[97].networkLayer.arp 	failedARPResolution:count 	1
attr title  "ARP failed resolutions, count"
scalar scenarioPRJP1.node[97].networkLayer.arp 	completedARPResolution:count 	61
attr title  "ARP completed resolutions, count"
scalar scenarioPRJP1.node[97].networkLayer.arp 	initiatedARPResolution:count 	10
attr title  "ARP initiated resolutions, count"
scalar scenarioPRJP1.node[97].networkLayer.arp 	sentReply:count 	6
attr title  "ARP replies sent, count"
scalar scenarioPRJP1.node[97].networkLayer.arp 	sentReq:count 	17
attr title  "ARP request sent, count"
scalar scenarioPRJP1.node[97].mobility 	startTime 	9.8
scalar scenarioPRJP1.node[97].mobility 	totalTime 	151.6
scalar scenarioPRJP1.node[97].mobility 	stopTime 	161.5
scalar scenarioPRJP1.node[97].mobility 	minSpeed 	2.4766130754548e-13
scalar scenarioPRJP1.node[97].mobility 	maxSpeed 	16.71308651381
scalar scenarioPRJP1.node[97].mobility 	totalDistance 	1484.5026524604
scalar scenarioPRJP1.node[97].mobility 	totalCO2Emission 	425.40780941594
scalar scenarioPRJP1.node[97].wlan.mgmt 	dataQueueLen:max 	12
attr interpolationmode  sample-hold
attr title  "data queue length, max"
scalar scenarioPRJP1.node[97].wlan.mgmt 	dataQueueLen:timeavg 	0
attr interpolationmode  sample-hold
attr title  "data queue length, timeavg"
scalar scenarioPRJP1.node[97].wlan.mgmt 	dropPkByQueue:count 	0
attr interpolationmode  none
attr source  dropPkByQueue
attr title  "packets dropped by queue, count"
scalar scenarioPRJP1.node[97].wlan.mgmt 	dropPkByQueue:sum(packetBytes) 	0
attr interpolationmode  none
attr source  dropPkByQueue
attr title  "packets dropped by queue, sum(packetBytes)"
scalar scenarioPRJP1.node[97].wlan.mac 	"number of received packets" 	727
scalar scenarioPRJP1.node[97].wlan.mac 	"number of collisions" 	5162
scalar scenarioPRJP1.node[97].wlan.mac 	"number of internal collisions" 	0
scalar scenarioPRJP1.node[97].wlan.mac 	"number of retry for AC 0" 	1678
scalar scenarioPRJP1.node[97].wlan.mac 	"number of retry for AC 1" 	0
scalar scenarioPRJP1.node[97].wlan.mac 	"number of retry for AC 2" 	0
scalar scenarioPRJP1.node[97].wlan.mac 	"number of retry for AC 3" 	0
scalar scenarioPRJP1.node[97].wlan.mac 	"sent and received bits" 	2683536
scalar scenarioPRJP1.node[97].wlan.mac 	"sent packet within AC 0" 	99
scalar scenarioPRJP1.node[97].wlan.mac 	"sent packet within AC 1" 	0
scalar scenarioPRJP1.node[97].wlan.mac 	"sent packet within AC 2" 	0
scalar scenarioPRJP1.node[97].wlan.mac 	"sent packet within AC 3" 	0
scalar scenarioPRJP1.node[97].wlan.mac 	"sent in TXOP " 	0
scalar scenarioPRJP1.node[97].wlan.mac 	"sentWithoutRetry AC 0" 	73
scalar scenarioPRJP1.node[97].wlan.mac 	"sentWithoutRetry AC 1" 	0
scalar scenarioPRJP1.node[97].wlan.mac 	"sentWithoutRetry AC 2" 	0
scalar scenarioPRJP1.node[97].wlan.mac 	"sentWithoutRetry AC 3" 	0
scalar scenarioPRJP1.node[97].wlan.mac 	"numGivenUp AC 0" 	266
scalar scenarioPRJP1.node[97].wlan.mac 	"numGivenUp AC 1" 	0
scalar scenarioPRJP1.node[97].wlan.mac 	"numGivenUp AC 2" 	0
scalar scenarioPRJP1.node[97].wlan.mac 	"numGivenUp AC 3" 	0
scalar scenarioPRJP1.node[97].wlan.mac 	"numDropped AC 0" 	0
scalar scenarioPRJP1.node[97].wlan.mac 	"numDropped AC 1" 	0
scalar scenarioPRJP1.node[97].wlan.mac 	"numDropped AC 2" 	0
scalar scenarioPRJP1.node[97].wlan.mac 	"numDropped AC 3" 	0
scalar scenarioPRJP1.node[97].wlan.mac 	rcvdPkFromLL:count 	19082
attr interpolationmode  none
attr source  packetReceivedFromLower
attr title  "packets received from lower layer, count"
scalar scenarioPRJP1.node[97].wlan.mac 	rcvdPkFromLL:sum(packetBytes) 	5840339
attr interpolationmode  none
attr source  packetReceivedFromLower
attr title  "packets received from lower layer, sum(packetBytes)"
scalar scenarioPRJP1.node[97].wlan.mac 	sentDownPk:count 	4816
attr interpolationmode  none
attr source  packetSentToLower
attr title  "packets sent to lower layer, count"
scalar scenarioPRJP1.node[97].wlan.mac 	sentDownPk:sum(packetBytes) 	1444483
attr interpolationmode  none
attr source  packetSentToLower
attr title  "packets sent to lower layer, sum(packetBytes)"
scalar scenarioPRJP1.node[97].wlan.mac 	rcvdPkFromHL:count 	2411
attr interpolationmode  none
attr source  packetReceivedFromUpper
attr title  "packets received from higher layer, count"
scalar scenarioPRJP1.node[97].wlan.mac 	rcvdPkFromHL:sum(packetBytes) 	485675
attr interpolationmode  none
attr source  packetReceivedFromUpper
attr title  "packets received from higher layer, sum(packetBytes)"
scalar scenarioPRJP1.node[97].wlan.mac 	passedUpPk:count 	6526
attr interpolationmode  none
attr source  packetSentToUpper
attr title  "packets passed to higher layer, count"
scalar scenarioPRJP1.node[97].wlan.mac 	passedUpPk:sum(packetBytes) 	1033161
attr interpolationmode  none
attr source  packetSentToUpper
attr title  "packets passed to higher layer, sum(packetBytes)"
statistic scenarioPRJP1.node[97].wlan.radio 	radioChannel:histogram
field count 1
field mean 3
field stddev -nan
field sum 3
field sqrsum 9
field min 3
field max 3
attr interpolationmode  sample-hold
attr source  radioChannelChanged
attr title  "Radio channel, histogram"
bin	-INF	0
bin	2	0
bin	3	1
bin	4	0
scalar scenarioPRJP1.node[97].wlan.radio 	transmissionState:count 	19264
attr interpolationmode  sample-hold
attr source  transmissionStateChanged
attr title  "Radio transmission state, count"
scalar scenarioPRJP1.node[97].wlan.radio 	receptionState:count 	48853
attr interpolationmode  sample-hold
attr source  receptionStateChanged
attr title  "Radio reception state, count"
scalar scenarioPRJP1.node[97].wlan.radio 	radioMode:count 	9634
attr interpolationmode  sample-hold
attr source  radioModeChanged
attr title  "Radio mode, count"
statistic scenarioPRJP1.node[97].wlan.radio 	symbolErrorRate:histogram
field count 0
field mean -nan
field stddev -nan
field sum 0
field sqrsum 0
field min -nan
field max -nan
attr source  symbolErrorRate
attr title  "Symbol error rate, histogram"
bin	-INF	0
bin	-0.5	0
bin	-0.46666666666667	0
bin	-0.43333333333333	0
bin	-0.4	0
bin	-0.36666666666667	0
bin	-0.33333333333333	0
bin	-0.3	0
bin	-0.26666666666667	0
bin	-0.23333333333333	0
bin	-0.2	0
bin	-0.16666666666667	0
bin	-0.13333333333333	0
bin	-0.1	0
bin	-0.066666666666667	0
bin	-0.033333333333333	0
bin	0	0
bin	0.033333333333333	0
bin	0.066666666666667	0
bin	0.1	0
bin	0.13333333333333	0
bin	0.16666666666667	0
bin	0.2	0
bin	0.23333333333333	0
bin	0.26666666666667	0
bin	0.3	0
bin	0.33333333333333	0
bin	0.36666666666667	0
bin	0.4	0
bin	0.43333333333333	0
bin	0.46666666666667	0
bin	0.5	0
statistic scenarioPRJP1.node[97].wlan.radio 	bitErrorRate:histogram
field count 0
field mean -nan
field stddev -nan
field sum 0
field sqrsum 0
field min -nan
field max -nan
attr source  bitErrorRate
attr title  "Bit error rate, histogram"
bin	-INF	0
bin	-0.5	0
bin	-0.46666666666667	0
bin	-0.43333333333333	0
bin	-0.4	0
bin	-0.36666666666667	0
bin	-0.33333333333333	0
bin	-0.3	0
bin	-0.26666666666667	0
bin	-0.23333333333333	0
bin	-0.2	0
bin	-0.16666666666667	0
bin	-0.13333333333333	0
bin	-0.1	0
bin	-0.066666666666667	0
bin	-0.033333333333333	0
bin	0	0
bin	0.033333333333333	0
bin	0.066666666666667	0
bin	0.1	0
bin	0.13333333333333	0
bin	0.16666666666667	0
bin	0.2	0
bin	0.23333333333333	0
bin	0.26666666666667	0
bin	0.3	0
bin	0.33333333333333	0
bin	0.36666666666667	0
bin	0.4	0
bin	0.43333333333333	0
bin	0.46666666666667	0
bin	0.5	0
statistic scenarioPRJP1.node[97].wlan.radio 	packetErrorRate:histogram
field count 19082
field mean 0.24429929274923
field stddev 0.41758194496699
field sum 4661.7191042409
field sqrsum 4466.0979637892
field min 0
field max 1
attr source  packetErrorRate
attr title  "Packet error rate, histogram"
bin	-INF	0
bin	-0.5	0
bin	-0.43333333333333	0
bin	-0.36666666666667	0
bin	-0.3	0
bin	-0.23333333333333	0
bin	-0.16666666666667	0
bin	-0.1	0
bin	-0.033333333333333	13655
bin	0.033333333333333	285
bin	0.1	156
bin	0.16666666666667	100
bin	0.23333333333333	83
bin	0.3	69
bin	0.36666666666667	84
bin	0.43333333333333	62
bin	0.5	58
bin	0.56666666666667	50
bin	0.63333333333333	40
bin	0.7	48
bin	0.76666666666667	57
bin	0.83333333333333	64
bin	0.9	106
bin	0.96666666666667	4165
bin	1.0333333333333	0
bin	1.1	0
bin	1.1666666666667	0
bin	1.2333333333333	0
bin	1.3	0
bin	1.3666666666667	0
bin	1.4333333333333	0
bin	1.5	0
statistic scenarioPRJP1.node[97].wlan.radio 	minSNIR:histogram
field count 19082
field mean 2353.8083459719
field stddev 21255.703461996
field sum 44915370.857836
field sqrsum 8726612037711.9
field min 0.00025456401632507
field max 753239.71923443
attr source  minSNIR
attr title  "Min SNIR, histogram"
bin	-INF	0
bin	-7814.4017837105	0
bin	-6772.3261597334	0
bin	-5730.2505357563	0
bin	-4688.1749117792	0
bin	-3646.0992878021	0
bin	-2604.023663825	0
bin	-1561.9480398479	0
bin	-519.87241587075	16424
bin	522.20320810636	567
bin	1564.2788320835	140
bin	2606.3544560606	232
bin	3648.4300800377	282
bin	4690.5057040148	200
bin	5732.5813279919	104
bin	6774.656951969	107
bin	7816.7325759461	81
bin	8858.8081999232	81
bin	9900.8838239004	91
bin	10942.959447877	88
bin	11985.035071855	76
bin	13027.110695832	51
bin	14069.186319809	36
bin	15111.261943786	34
bin	16153.337567763	24
bin	17195.41319174	27
bin	18237.488815717	24
bin	19279.564439694	26
bin	20321.640063671	22
bin	21363.715687649	21
bin	22405.791311626	22
bin	23447.866935603	322
scalar scenarioPRJP1.node[97].lo0.lo 	droppedPkBitError:count 	0
attr interpolationmode  none
attr source  dropPkBitError
attr title  "packets dropped/bit error, count"
scalar scenarioPRJP1.node[97].lo0.lo 	droppedPkBitError:sum(packetBytes) 	0
attr interpolationmode  none
attr source  dropPkBitError
attr title  "packets dropped/bit error, sum(packetBytes)"
scalar scenarioPRJP1.node[97].lo0.lo 	rcvdPkFromHL:count 	0
attr interpolationmode  none
attr source  packetReceivedFromUpper
attr title  "packets received from higher layer, count"
scalar scenarioPRJP1.node[97].lo0.lo 	rcvdPkFromHL:sum(packetBytes) 	0
attr interpolationmode  none
attr source  packetReceivedFromUpper
attr title  "packets received from higher layer, sum(packetBytes)"
scalar scenarioPRJP1.node[97].lo0.lo 	passedUpPk:count 	0
attr interpolationmode  none
attr source  packetSentToUpper
attr title  "packets passed to higher layer, count"
scalar scenarioPRJP1.node[97].lo0.lo 	passedUpPk:sum(packetBytes) 	0
attr interpolationmode  none
attr source  packetSentToUpper
attr title  "packets passed to higher layer, sum(packetBytes)"
scalar scenarioPRJP1.node[55].app 	"Total sent" 	376
scalar scenarioPRJP1.node[55].app 	"Total received" 	69
scalar scenarioPRJP1.node[55].app 	"Total deleted" 	10
scalar scenarioPRJP1.node[55].app 	dropPk:count 	10
attr interpolationmode  none
attr source  dropPk
attr title  "packets dropped, count"
scalar scenarioPRJP1.node[55].app 	dropPk:sum(packetBytes) 	5120
attr interpolationmode  none
attr source  dropPk
attr title  "packets dropped, sum(packetBytes)"
scalar scenarioPRJP1.node[55].app 	outOfOrderPk:count 	0
attr interpolationmode  none
attr source  outOfOrderPk
attr title  "packets received out of order, count"
scalar scenarioPRJP1.node[55].app 	outOfOrderPk:sum(packetBytes) 	0
attr interpolationmode  none
attr source  outOfOrderPk
attr title  "packets received out of order, sum(packetBytes)"
scalar scenarioPRJP1.node[55].app 	rcvdPk:count 	69
attr interpolationmode  none
attr source  rcvdPk
attr title  "packets received, count"
scalar scenarioPRJP1.node[55].app 	rcvdPk:sum(packetBytes) 	35328
attr interpolationmode  none
attr source  rcvdPk
attr title  "packets received, sum(packetBytes)"
statistic scenarioPRJP1.node[55].app 	endToEndDelay:histogram
field count 69
field mean 4.53273614219
field stddev 5.8690889844229
field sum 312.75879381111
field sqrsum 3759.9950629764
field min 0.000945045557
field max 18.528678516763
attr interpolationmode  none
attr source  messageAge(rcvdPk)
attr title  "delay, histogram"
attr unit  s
bin	-INF	0
bin	-9.262921690046	0
bin	-8.0277394586323	0
bin	-6.7925572272185	0
bin	-5.5573749958048	0
bin	-4.3221927643911	0
bin	-3.0870105329773	0
bin	-1.8518283015636	0
bin	-0.61664607014987	32
bin	0.61853616126387	5
bin	1.8537183926776	3
bin	3.0889006240913	1
bin	4.3240828555051	7
bin	5.5592650869188	0
bin	6.7944473183325	2
bin	8.0296295497463	4
bin	9.26481178116	3
bin	10.499994012574	1
bin	11.735176243987	1
bin	12.970358475401	1
bin	14.205540706815	2
bin	15.440722938229	4
bin	16.675905169642	1
bin	17.911087401056	2
bin	19.14626963247	0
bin	20.381451863884	0
bin	21.616634095297	0
bin	22.851816326711	0
bin	24.086998558125	0
bin	25.322180789539	0
bin	26.557363020952	0
bin	27.792545252366	0
scalar scenarioPRJP1.node[55].app 	sentPk:count 	376
attr interpolationmode  none
attr source  sentPk
attr title  "packets sent, count"
scalar scenarioPRJP1.node[55].app 	sentPk:sum(packetBytes) 	192512
attr interpolationmode  none
attr source  sentPk
attr title  "packets sent, sum(packetBytes)"
scalar scenarioPRJP1.node[55].udp 	droppedPkBadChecksum:count 	0
attr interpolationmode  none
attr title  "packets dropped (checksum error), count"
scalar scenarioPRJP1.node[55].udp 	droppedPkWrongPort:count 	0
attr interpolationmode  none
attr title  "packets dropped (wrong port), count"
scalar scenarioPRJP1.node[55].udp 	passedUpPk:count 	79
attr interpolationmode  none
attr title  "packets passed up, count"
scalar scenarioPRJP1.node[55].udp 	rcvdPk:count 	79
attr interpolationmode  none
attr source  rcvdPk
attr title  "packets received, count"
scalar scenarioPRJP1.node[55].udp 	rcvdPk:sum(packetBytes) 	41080
attr interpolationmode  none
attr source  rcvdPk
attr title  "packets received, sum(packetBytes)"
scalar scenarioPRJP1.node[55].udp 	sentPk:count 	376
attr interpolationmode  none
attr source  sentPk
attr title  "packets sent, count"
scalar scenarioPRJP1.node[55].udp 	sentPk:sum(packetBytes) 	195520
attr interpolationmode  none
attr source  sentPk
attr title  "packets sent, sum(packetBytes)"
scalar scenarioPRJP1.node[55].networkLayer.arp 	failedARPResolution:count 	2
attr title  "ARP failed resolutions, count"
scalar scenarioPRJP1.node[55].networkLayer.arp 	completedARPResolution:count 	126
attr title  "ARP completed resolutions, count"
scalar scenarioPRJP1.node[55].networkLayer.arp 	initiatedARPResolution:count 	15
attr title  "ARP initiated resolutions, count"
scalar scenarioPRJP1.node[55].networkLayer.arp 	sentReply:count 	12
attr title  "ARP replies sent, count"
scalar scenarioPRJP1.node[55].networkLayer.arp 	sentReq:count 	24
attr title  "ARP request sent, count"
scalar scenarioPRJP1.node[55].mobility 	startTime 	4.9
scalar scenarioPRJP1.node[55].mobility 	totalTime 	156.9
scalar scenarioPRJP1.node[55].mobility 	stopTime 	161.9
scalar scenarioPRJP1.node[55].mobility 	minSpeed 	2.4779427958737e-13
scalar scenarioPRJP1.node[55].mobility 	maxSpeed 	18.393203952817
scalar scenarioPRJP1.node[55].mobility 	totalDistance 	1452.5133371637
scalar scenarioPRJP1.node[55].mobility 	totalCO2Emission 	400.55708878525
scalar scenarioPRJP1.node[55].wlan.mgmt 	dataQueueLen:max 	6
attr interpolationmode  sample-hold
attr title  "data queue length, max"
scalar scenarioPRJP1.node[55].wlan.mgmt 	dataQueueLen:timeavg 	0
attr interpolationmode  sample-hold
attr title  "data queue length, timeavg"
scalar scenarioPRJP1.node[55].wlan.mgmt 	dropPkByQueue:count 	0
attr interpolationmode  none
attr source  dropPkByQueue
attr title  "packets dropped by queue, count"
scalar scenarioPRJP1.node[55].wlan.mgmt 	dropPkByQueue:sum(packetBytes) 	0
attr interpolationmode  none
attr source  dropPkByQueue
attr title  "packets dropped by queue, sum(packetBytes)"
scalar scenarioPRJP1.node[55].wlan.mac 	"number of received packets" 	482
scalar scenarioPRJP1.node[55].wlan.mac 	"number of collisions" 	6682
scalar scenarioPRJP1.node[55].wlan.mac 	"number of internal collisions" 	0
scalar scenarioPRJP1.node[55].wlan.mac 	"number of retry for AC 0" 	1179
scalar scenarioPRJP1.node[55].wlan.mac 	"number of retry for AC 1" 	0
scalar scenarioPRJP1.node[55].wlan.mac 	"number of retry for AC 2" 	0
scalar scenarioPRJP1.node[55].wlan.mac 	"number of retry for AC 3" 	0
scalar scenarioPRJP1.node[55].wlan.mac 	"sent and received bits" 	2945264
scalar scenarioPRJP1.node[55].wlan.mac 	"sent packet within AC 0" 	105
scalar scenarioPRJP1.node[55].wlan.mac 	"sent packet within AC 1" 	0
scalar scenarioPRJP1.node[55].wlan.mac 	"sent packet within AC 2" 	0
scalar scenarioPRJP1.node[55].wlan.mac 	"sent packet within AC 3" 	0
scalar scenarioPRJP1.node[55].wlan.mac 	"sent in TXOP " 	0
scalar scenarioPRJP1.node[55].wlan.mac 	"sentWithoutRetry AC 0" 	85
scalar scenarioPRJP1.node[55].wlan.mac 	"sentWithoutRetry AC 1" 	0
scalar scenarioPRJP1.node[55].wlan.mac 	"sentWithoutRetry AC 2" 	0
scalar scenarioPRJP1.node[55].wlan.mac 	"sentWithoutRetry AC 3" 	0
scalar scenarioPRJP1.node[55].wlan.mac 	"numGivenUp AC 0" 	189
scalar scenarioPRJP1.node[55].wlan.mac 	"numGivenUp AC 1" 	0
scalar scenarioPRJP1.node[55].wlan.mac 	"numGivenUp AC 2" 	0
scalar scenarioPRJP1.node[55].wlan.mac 	"numGivenUp AC 3" 	0
scalar scenarioPRJP1.node[55].wlan.mac 	"numDropped AC 0" 	0
scalar scenarioPRJP1.node[55].wlan.mac 	"numDropped AC 1" 	0
scalar scenarioPRJP1.node[55].wlan.mac 	"numDropped AC 2" 	0
scalar scenarioPRJP1.node[55].wlan.mac 	"numDropped AC 3" 	0
scalar scenarioPRJP1.node[55].wlan.mac 	rcvdPkFromLL:count 	32057
attr interpolationmode  none
attr source  packetReceivedFromLower
attr title  "packets received from lower layer, count"
scalar scenarioPRJP1.node[55].wlan.mac 	rcvdPkFromLL:sum(packetBytes) 	9784335
attr interpolationmode  none
attr source  packetReceivedFromLower
attr title  "packets received from lower layer, sum(packetBytes)"
scalar scenarioPRJP1.node[55].wlan.mac 	sentDownPk:count 	4239
attr interpolationmode  none
attr source  packetSentToLower
attr title  "packets sent to lower layer, count"
scalar scenarioPRJP1.node[55].wlan.mac 	sentDownPk:sum(packetBytes) 	1131472
attr interpolationmode  none
attr source  packetSentToLower
attr title  "packets sent to lower layer, sum(packetBytes)"
scalar scenarioPRJP1.node[55].wlan.mac 	rcvdPkFromHL:count 	2578
attr interpolationmode  none
attr source  packetReceivedFromUpper
attr title  "packets received from higher layer, count"
scalar scenarioPRJP1.node[55].wlan.mac 	rcvdPkFromHL:sum(packetBytes) 	472536
attr interpolationmode  none
attr source  packetReceivedFromUpper
attr title  "packets received from higher layer, sum(packetBytes)"
scalar scenarioPRJP1.node[55].wlan.mac 	passedUpPk:count 	11504
attr interpolationmode  none
attr source  packetSentToUpper
attr title  "packets passed to higher layer, count"
scalar scenarioPRJP1.node[55].wlan.mac 	passedUpPk:sum(packetBytes) 	1666168
attr interpolationmode  none
attr source  packetSentToUpper
attr title  "packets passed to higher layer, sum(packetBytes)"
statistic scenarioPRJP1.node[55].wlan.radio 	radioChannel:histogram
field count 1
field mean 3
field stddev -nan
field sum 3
field sqrsum 9
field min 3
field max 3
attr interpolationmode  sample-hold
attr source  radioChannelChanged
attr title  "Radio channel, histogram"
bin	-INF	0
bin	2	0
bin	3	1
bin	4	0
scalar scenarioPRJP1.node[55].wlan.radio 	transmissionState:count 	16956
attr interpolationmode  sample-hold
attr source  transmissionStateChanged
attr title  "Radio transmission state, count"
scalar scenarioPRJP1.node[55].wlan.radio 	receptionState:count 	74358
attr interpolationmode  sample-hold
attr source  receptionStateChanged
attr title  "Radio reception state, count"
scalar scenarioPRJP1.node[55].wlan.radio 	radioMode:count 	8480
attr interpolationmode  sample-hold
attr source  radioModeChanged
attr title  "Radio mode, count"
statistic scenarioPRJP1.node[55].wlan.radio 	symbolErrorRate:histogram
field count 0
field mean -nan
field stddev -nan
field sum 0
field sqrsum 0
field min -nan
field max -nan
attr source  symbolErrorRate
attr title  "Symbol error rate, histogram"
bin	-INF	0
bin	-0.5	0
bin	-0.46666666666667	0
bin	-0.43333333333333	0
bin	-0.4	0
bin	-0.36666666666667	0
bin	-0.33333333333333	0
bin	-0.3	0
bin	-0.26666666666667	0
bin	-0.23333333333333	0
bin	-0.2	0
bin	-0.16666666666667	0
bin	-0.13333333333333	0
bin	-0.1	0
bin	-0.066666666666667	0
bin	-0.033333333333333	0
bin	0	0
bin	0.033333333333333	0
bin	0.066666666666667	0
bin	0.1	0
bin	0.13333333333333	0
bin	0.16666666666667	0
bin	0.2	0
bin	0.23333333333333	0
bin	0.26666666666667	0
bin	0.3	0
bin	0.33333333333333	0
bin	0.36666666666667	0
bin	0.4	0
bin	0.43333333333333	0
bin	0.46666666666667	0
bin	0.5	0
statistic scenarioPRJP1.node[55].wlan.radio 	bitErrorRate:histogram
field count 0
field mean -nan
field stddev -nan
field sum 0
field sqrsum 0
field min -nan
field max -nan
attr source  bitErrorRate
attr title  "Bit error rate, histogram"
bin	-INF	0
bin	-0.5	0
bin	-0.46666666666667	0
bin	-0.43333333333333	0
bin	-0.4	0
bin	-0.36666666666667	0
bin	-0.33333333333333	0
bin	-0.3	0
bin	-0.26666666666667	0
bin	-0.23333333333333	0
bin	-0.2	0
bin	-0.16666666666667	0
bin	-0.13333333333333	0
bin	-0.1	0
bin	-0.066666666666667	0
bin	-0.033333333333333	0
bin	0	0
bin	0.033333333333333	0
bin	0.066666666666667	0
bin	0.1	0
bin	0.13333333333333	0
bin	0.16666666666667	0
bin	0.2	0
bin	0.23333333333333	0
bin	0.26666666666667	0
bin	0.3	0
bin	0.33333333333333	0
bin	0.36666666666667	0
bin	0.4	0
bin	0.43333333333333	0
bin	0.46666666666667	0
bin	0.5	0
statistic scenarioPRJP1.node[55].wlan.radio 	packetErrorRate:histogram
field count 32057
field mean 0.19185716876098
field stddev 0.38447832661098
field sum 6150.3652589707
field sqrsum 5918.6244623901
field min 0
field max 1
attr source  packetErrorRate
attr title  "Packet error rate, histogram"
bin	-INF	0
bin	-0.5	0
bin	-0.43333333333333	0
bin	-0.36666666666667	0
bin	-0.3	0
bin	-0.23333333333333	0
bin	-0.16666666666667	0
bin	-0.1	0
bin	-0.033333333333333	24967
bin	0.033333333333333	359
bin	0.1	195
bin	0.16666666666667	145
bin	0.23333333333333	120
bin	0.3	64
bin	0.36666666666667	73
bin	0.43333333333333	66
bin	0.5	47
bin	0.56666666666667	64
bin	0.63333333333333	48
bin	0.7	69
bin	0.76666666666667	77
bin	0.83333333333333	86
bin	0.9	126
bin	0.96666666666667	5551
bin	1.0333333333333	0
bin	1.1	0
bin	1.1666666666667	0
bin	1.2333333333333	0
bin	1.3	0
bin	1.3666666666667	0
bin	1.4333333333333	0
bin	1.5	0
statistic scenarioPRJP1.node[55].wlan.radio 	minSNIR:histogram
field count 32057
field mean 933.82549170923
field stddev 8780.1709936
field sum 29935643.787723
field sqrsum 2499196671488.9
field min 0.00034338992105708
field max 689266.38586599
attr source  minSNIR
attr title  "Min SNIR, histogram"
bin	-INF	0
bin	-30447.682095467	0
bin	-26387.986101063	0
bin	-22328.290106659	0
bin	-18268.594112255	0
bin	-14208.898117851	0
bin	-10149.202123447	0
bin	-6089.5061290431	0
bin	-2029.8101346391	30256
bin	2029.885859765	1121
bin	6089.581854169	187
bin	10149.277848573	83
bin	14208.973842977	135
bin	18268.669837381	50
bin	22328.365831785	61
bin	26388.061826189	10
bin	30447.757820593	7
bin	34507.453814997	6
bin	38567.149809401	59
bin	42626.845803805	19
bin	46686.541798209	5
bin	50746.237792613	2
bin	54805.933787017	3
bin	58865.629781421	5
bin	62925.325775826	4
bin	66985.02177023	0
bin	71044.717764634	0
bin	75104.413759038	3
bin	79164.109753442	0
bin	83223.805747846	0
bin	87283.50174225	0
bin	91343.197736654	41
scalar scenarioPRJP1.node[55].lo0.lo 	droppedPkBitError:count 	0
attr interpolationmode  none
attr source  dropPkBitError
attr title  "packets dropped/bit error, count"
scalar scenarioPRJP1.node[55].lo0.lo 	droppedPkBitError:sum(packetBytes) 	0
attr interpolationmode  none
attr source  dropPkBitError
attr title  "packets dropped/bit error, sum(packetBytes)"
scalar scenarioPRJP1.node[55].lo0.lo 	rcvdPkFromHL:count 	0
attr interpolationmode  none
attr source  packetReceivedFromUpper
attr title  "packets received from higher layer, count"
scalar scenarioPRJP1.node[55].lo0.lo 	rcvdPkFromHL:sum(packetBytes) 	0
attr interpolationmode  none
attr source  packetReceivedFromUpper
attr title  "packets received from higher layer, sum(packetBytes)"
scalar scenarioPRJP1.node[55].lo0.lo 	passedUpPk:count 	0
attr interpolationmode  none
attr source  packetSentToUpper
attr title  "packets passed to higher layer, count"
scalar scenarioPRJP1.node[55].lo0.lo 	passedUpPk:sum(packetBytes) 	0
attr interpolationmode  none
attr source  packetSentToUpper
attr title  "packets passed to higher layer, sum(packetBytes)"
scalar scenarioPRJP1.node[60].app 	"Total sent" 	373
scalar scenarioPRJP1.node[60].app 	"Total received" 	50
scalar scenarioPRJP1.node[60].app 	"Total deleted" 	7
scalar scenarioPRJP1.node[60].app 	dropPk:count 	7
attr interpolationmode  none
attr source  dropPk
attr title  "packets dropped, count"
scalar scenarioPRJP1.node[60].app 	dropPk:sum(packetBytes) 	3584
attr interpolationmode  none
attr source  dropPk
attr title  "packets dropped, sum(packetBytes)"
scalar scenarioPRJP1.node[60].app 	outOfOrderPk:count 	0
attr interpolationmode  none
attr source  outOfOrderPk
attr title  "packets received out of order, count"
scalar scenarioPRJP1.node[60].app 	outOfOrderPk:sum(packetBytes) 	0
attr interpolationmode  none
attr source  outOfOrderPk
attr title  "packets received out of order, sum(packetBytes)"
scalar scenarioPRJP1.node[60].app 	rcvdPk:count 	50
attr interpolationmode  none
attr source  rcvdPk
attr title  "packets received, count"
scalar scenarioPRJP1.node[60].app 	rcvdPk:sum(packetBytes) 	25600
attr interpolationmode  none
attr source  rcvdPk
attr title  "packets received, sum(packetBytes)"
statistic scenarioPRJP1.node[60].app 	endToEndDelay:histogram
field count 50
field mean 3.8799667025365
field stddev 4.9359524119217
field sum 193.99833512683
field sqrsum 1946.5247650646
field min 0.00098405001
field max 19.313333016145
attr interpolationmode  none
attr source  messageAge(rcvdPk)
attr title  "delay, histogram"
attr unit  s
bin	-INF	0
bin	-9.6551904330575	0
bin	-8.3677005019818	0
bin	-7.0802105709062	0
bin	-5.7927206398305	0
bin	-4.5052307087548	0
bin	-3.2177407776792	0
bin	-1.9302508466035	0
bin	-0.64276091552783	19
bin	0.64472901554783	6
bin	1.9322189466235	5
bin	3.2197088776992	3
bin	4.5071988087748	5
bin	5.7946887398505	2
bin	7.0821786709262	3
bin	8.3696686020018	0
bin	9.6571585330775	1
bin	10.944648464153	0
bin	12.232138395229	1
bin	13.519628326304	3
bin	14.80711825738	1
bin	16.094608188456	0
bin	17.382098119531	0
bin	18.669588050607	1
bin	19.957077981683	0
bin	21.244567912758	0
bin	22.532057843834	0
bin	23.81954777491	0
bin	25.107037705985	0
bin	26.394527637061	0
bin	27.682017568137	0
bin	28.969507499212	0
scalar scenarioPRJP1.node[60].app 	sentPk:count 	373
attr interpolationmode  none
attr source  sentPk
attr title  "packets sent, count"
scalar scenarioPRJP1.node[60].app 	sentPk:sum(packetBytes) 	190976
attr interpolationmode  none
attr source  sentPk
attr title  "packets sent, sum(packetBytes)"
scalar scenarioPRJP1.node[60].udp 	droppedPkBadChecksum:count 	0
attr interpolationmode  none
attr title  "packets dropped (checksum error), count"
scalar scenarioPRJP1.node[60].udp 	droppedPkWrongPort:count 	0
attr interpolationmode  none
attr title  "packets dropped (wrong port), count"
scalar scenarioPRJP1.node[60].udp 	passedUpPk:count 	57
attr interpolationmode  none
attr title  "packets passed up, count"
scalar scenarioPRJP1.node[60].udp 	rcvdPk:count 	57
attr interpolationmode  none
attr source  rcvdPk
attr title  "packets received, count"
scalar scenarioPRJP1.node[60].udp 	rcvdPk:sum(packetBytes) 	29640
attr interpolationmode  none
attr source  rcvdPk
attr title  "packets received, sum(packetBytes)"
scalar scenarioPRJP1.node[60].udp 	sentPk:count 	373
attr interpolationmode  none
attr source  sentPk
attr title  "packets sent, count"
scalar scenarioPRJP1.node[60].udp 	sentPk:sum(packetBytes) 	193960
attr interpolationmode  none
attr source  sentPk
attr title  "packets sent, sum(packetBytes)"
scalar scenarioPRJP1.node[60].networkLayer.arp 	failedARPResolution:count 	4
attr title  "ARP failed resolutions, count"
scalar scenarioPRJP1.node[60].networkLayer.arp 	completedARPResolution:count 	112
attr title  "ARP completed resolutions, count"
scalar scenarioPRJP1.node[60].networkLayer.arp 	initiatedARPResolution:count 	17
attr title  "ARP initiated resolutions, count"
scalar scenarioPRJP1.node[60].networkLayer.arp 	sentReply:count 	15
attr title  "ARP replies sent, count"
scalar scenarioPRJP1.node[60].networkLayer.arp 	sentReq:count 	29
attr title  "ARP request sent, count"
scalar scenarioPRJP1.node[60].mobility 	startTime 	7.2
scalar scenarioPRJP1.node[60].mobility 	totalTime 	155.9
scalar scenarioPRJP1.node[60].mobility 	stopTime 	163.2
scalar scenarioPRJP1.node[60].mobility 	minSpeed 	2.4757752239736e-13
scalar scenarioPRJP1.node[60].mobility 	maxSpeed 	15.281606756395
scalar scenarioPRJP1.node[60].mobility 	totalDistance 	1484.0226391328
scalar scenarioPRJP1.node[60].mobility 	totalCO2Emission 	411.07151842075
scalar scenarioPRJP1.node[60].wlan.mgmt 	dataQueueLen:max 	41
attr interpolationmode  sample-hold
attr title  "data queue length, max"
scalar scenarioPRJP1.node[60].wlan.mgmt 	dataQueueLen:timeavg 	0.0062932113715897
attr interpolationmode  sample-hold
attr title  "data queue length, timeavg"
scalar scenarioPRJP1.node[60].wlan.mgmt 	dropPkByQueue:count 	0
attr interpolationmode  none
attr source  dropPkByQueue
attr title  "packets dropped by queue, count"
scalar scenarioPRJP1.node[60].wlan.mgmt 	dropPkByQueue:sum(packetBytes) 	0
attr interpolationmode  none
attr source  dropPkByQueue
attr title  "packets dropped by queue, sum(packetBytes)"
scalar scenarioPRJP1.node[60].wlan.mac 	"number of received packets" 	511
scalar scenarioPRJP1.node[60].wlan.mac 	"number of collisions" 	6749
scalar scenarioPRJP1.node[60].wlan.mac 	"number of internal collisions" 	0
scalar scenarioPRJP1.node[60].wlan.mac 	"number of retry for AC 0" 	1571
scalar scenarioPRJP1.node[60].wlan.mac 	"number of retry for AC 1" 	0
scalar scenarioPRJP1.node[60].wlan.mac 	"number of retry for AC 2" 	0
scalar scenarioPRJP1.node[60].wlan.mac 	"number of retry for AC 3" 	0
scalar scenarioPRJP1.node[60].wlan.mac 	"sent and received bits" 	2912384
scalar scenarioPRJP1.node[60].wlan.mac 	"sent packet within AC 0" 	87
scalar scenarioPRJP1.node[60].wlan.mac 	"sent packet within AC 1" 	0
scalar scenarioPRJP1.node[60].wlan.mac 	"sent packet within AC 2" 	0
scalar scenarioPRJP1.node[60].wlan.mac 	"sent packet within AC 3" 	0
scalar scenarioPRJP1.node[60].wlan.mac 	"sent in TXOP " 	0
scalar scenarioPRJP1.node[60].wlan.mac 	"sentWithoutRetry AC 0" 	66
scalar scenarioPRJP1.node[60].wlan.mac 	"sentWithoutRetry AC 1" 	0
scalar scenarioPRJP1.node[60].wlan.mac 	"sentWithoutRetry AC 2" 	0
scalar scenarioPRJP1.node[60].wlan.mac 	"sentWithoutRetry AC 3" 	0
scalar scenarioPRJP1.node[60].wlan.mac 	"numGivenUp AC 0" 	254
scalar scenarioPRJP1.node[60].wlan.mac 	"numGivenUp AC 1" 	0
scalar scenarioPRJP1.node[60].wlan.mac 	"numGivenUp AC 2" 	0
scalar scenarioPRJP1.node[60].wlan.mac 	"numGivenUp AC 3" 	0
scalar scenarioPRJP1.node[60].wlan.mac 	"numDropped AC 0" 	8
scalar scenarioPRJP1.node[60].wlan.mac 	"numDropped AC 1" 	0
scalar scenarioPRJP1.node[60].wlan.mac 	"numDropped AC 2" 	0
scalar scenarioPRJP1.node[60].wlan.mac 	"numDropped AC 3" 	0
scalar scenarioPRJP1.node[60].wlan.mac 	rcvdPkFromLL:count 	26769
attr interpolationmode  none
attr source  packetReceivedFromLower
attr title  "packets received from lower layer, count"
scalar scenarioPRJP1.node[60].wlan.mac 	rcvdPkFromLL:sum(packetBytes) 	7493608
attr interpolationmode  none
attr source  packetReceivedFromLower
attr title  "packets received from lower layer, sum(packetBytes)"
scalar scenarioPRJP1.node[60].wlan.mac 	sentDownPk:count 	4649
attr interpolationmode  none
attr source  packetSentToLower
attr title  "packets sent to lower layer, count"
scalar scenarioPRJP1.node[60].wlan.mac 	sentDownPk:sum(packetBytes) 	1359136
attr interpolationmode  none
attr source  packetSentToLower
attr title  "packets sent to lower layer, sum(packetBytes)"
scalar scenarioPRJP1.node[60].wlan.mac 	rcvdPkFromHL:count 	2575
attr interpolationmode  none
attr source  packetReceivedFromUpper
attr title  "packets received from higher layer, count"
scalar scenarioPRJP1.node[60].wlan.mac 	rcvdPkFromHL:sum(packetBytes) 	504320
attr interpolationmode  none
attr source  packetReceivedFromUpper
attr title  "packets received from higher layer, sum(packetBytes)"
scalar scenarioPRJP1.node[60].wlan.mac 	passedUpPk:count 	9037
attr interpolationmode  none
attr source  packetSentToUpper
attr title  "packets passed to higher layer, count"
scalar scenarioPRJP1.node[60].wlan.mac 	passedUpPk:sum(packetBytes) 	1344330
attr interpolationmode  none
attr source  packetSentToUpper
attr title  "packets passed to higher layer, sum(packetBytes)"
statistic scenarioPRJP1.node[60].wlan.radio 	radioChannel:histogram
field count 1
field mean 3
field stddev -nan
field sum 3
field sqrsum 9
field min 3
field max 3
attr interpolationmode  sample-hold
attr source  radioChannelChanged
attr title  "Radio channel, histogram"
bin	-INF	0
bin	2	0
bin	3	1
bin	4	0
scalar scenarioPRJP1.node[60].wlan.radio 	transmissionState:count 	18596
attr interpolationmode  sample-hold
attr source  transmissionStateChanged
attr title  "Radio transmission state, count"
scalar scenarioPRJP1.node[60].wlan.radio 	receptionState:count 	64133
attr interpolationmode  sample-hold
attr source  receptionStateChanged
attr title  "Radio reception state, count"
scalar scenarioPRJP1.node[60].wlan.radio 	radioMode:count 	9300
attr interpolationmode  sample-hold
attr source  radioModeChanged
attr title  "Radio mode, count"
statistic scenarioPRJP1.node[60].wlan.radio 	symbolErrorRate:histogram
field count 0
field mean -nan
field stddev -nan
field sum 0
field sqrsum 0
field min -nan
field max -nan
attr source  symbolErrorRate
attr title  "Symbol error rate, histogram"
bin	-INF	0
bin	-0.5	0
bin	-0.46666666666667	0
bin	-0.43333333333333	0
bin	-0.4	0
bin	-0.36666666666667	0
bin	-0.33333333333333	0
bin	-0.3	0
bin	-0.26666666666667	0
bin	-0.23333333333333	0
bin	-0.2	0
bin	-0.16666666666667	0
bin	-0.13333333333333	0
bin	-0.1	0
bin	-0.066666666666667	0
bin	-0.033333333333333	0
bin	0	0
bin	0.033333333333333	0
bin	0.066666666666667	0
bin	0.1	0
bin	0.13333333333333	0
bin	0.16666666666667	0
bin	0.2	0
bin	0.23333333333333	0
bin	0.26666666666667	0
bin	0.3	0
bin	0.33333333333333	0
bin	0.36666666666667	0
bin	0.4	0
bin	0.43333333333333	0
bin	0.46666666666667	0
bin	0.5	0
statistic scenarioPRJP1.node[60].wlan.radio 	bitErrorRate:histogram
field count 0
field mean -nan
field stddev -nan
field sum 0
field sqrsum 0
field min -nan
field max -nan
attr source  bitErrorRate
attr title  "Bit error rate, histogram"
bin	-INF	0
bin	-0.5	0
bin	-0.46666666666667	0
bin	-0.43333333333333	0
bin	-0.4	0
bin	-0.36666666666667	0
bin	-0.33333333333333	0
bin	-0.3	0
bin	-0.26666666666667	0
bin	-0.23333333333333	0
bin	-0.2	0
bin	-0.16666666666667	0
bin	-0.13333333333333	0
bin	-0.1	0
bin	-0.066666666666667	0
bin	-0.033333333333333	0
bin	0	0
bin	0.033333333333333	0
bin	0.066666666666667	0
bin	0.1	0
bin	0.13333333333333	0
bin	0.16666666666667	0
bin	0.2	0
bin	0.23333333333333	0
bin	0.26666666666667	0
bin	0.3	0
bin	0.33333333333333	0
bin	0.36666666666667	0
bin	0.4	0
bin	0.43333333333333	0
bin	0.46666666666667	0
bin	0.5	0
statistic scenarioPRJP1.node[60].wlan.radio 	packetErrorRate:histogram
field count 26769
field mean 0.22479623778208
field stddev 0.40648688462681
field sum 6017.5704891886
field sqrsum 5775.6463373748
field min 0
field max 1
attr source  packetErrorRate
attr title  "Packet error rate, histogram"
bin	-INF	0
bin	-1.0209953660578e-05	0
bin	-8.8486265058344e-06	0
bin	-7.4872993510907e-06	0
bin	-6.1259721963469e-06	0
bin	-4.7646450416032e-06	0
bin	-3.4033178868594e-06	0
bin	-2.0419907321156e-06	0
bin	-6.8066357737188e-07	16805
bin	6.8066357737188e-07	210
bin	2.0419907321156e-06	120
bin	3.4033178868594e-06	75
bin	4.7646450416032e-06	46
bin	6.1259721963469e-06	47
bin	7.4872993510907e-06	39
bin	8.8486265058344e-06	26
bin	1.0209953660578e-05	27
bin	1.1571280815322e-05	23
bin	1.2932607970066e-05	26
bin	1.4293935124809e-05	17
bin	1.5655262279553e-05	27
bin	1.7016589434297e-05	13
bin	1.8377916589041e-05	16
bin	1.9739243743785e-05	18
bin	2.1100570898528e-05	27
bin	2.2461898053272e-05	16
bin	2.3823225208016e-05	14
bin	2.518455236276e-05	11
bin	2.6545879517503e-05	12
bin	2.7907206672247e-05	15
bin	2.9268533826991e-05	16
bin	3.0629860981735e-05	9123
statistic scenarioPRJP1.node[60].wlan.radio 	minSNIR:histogram
field count 26769
field mean 1285.2061403154
field stddev 15127.679315674
field sum 34403683.170103
field sqrsum 6169983794659.6
field min 0.00068671423171008
field max 753239.54474841
attr source  minSNIR
attr title  "Min SNIR, histogram"
bin	-INF	0
bin	-83453.622892997	0
bin	-72326.004633568	0
bin	-61198.386374138	0
bin	-50070.768114708	0
bin	-38943.149855278	0
bin	-27815.531595849	0
bin	-16687.913336419	0
bin	-5560.2950769893	25996
bin	5567.3231824404	512
bin	16694.94144187	81
bin	27822.5597013	45
bin	38950.17796073	18
bin	50077.796220159	18
bin	61205.414479589	12
bin	72333.032739019	5
bin	83460.650998448	3
bin	94588.269257878	5
bin	105715.88751731	8
bin	116843.50577674	3
bin	127971.12403617	5
bin	139098.7422956	1
bin	150226.36055503	9
bin	161353.97881446	3
bin	172481.59707389	6
bin	183609.21533332	3
bin	194736.83359275	1
bin	205864.45185218	1
bin	216992.07011161	12
bin	228119.68837103	3
bin	239247.30663046	2
bin	250374.92488989	17
scalar scenarioPRJP1.node[60].lo0.lo 	droppedPkBitError:count 	0
attr interpolationmode  none
attr source  dropPkBitError
attr title  "packets dropped/bit error, count"
scalar scenarioPRJP1.node[60].lo0.lo 	droppedPkBitError:sum(packetBytes) 	0
attr interpolationmode  none
attr source  dropPkBitError
attr title  "packets dropped/bit error, sum(packetBytes)"
scalar scenarioPRJP1.node[60].lo0.lo 	rcvdPkFromHL:count 	0
attr interpolationmode  none
attr source  packetReceivedFromUpper
attr title  "packets received from higher layer, count"
scalar scenarioPRJP1.node[60].lo0.lo 	rcvdPkFromHL:sum(packetBytes) 	0
attr interpolationmode  none
attr source  packetReceivedFromUpper
attr title  "packets received from higher layer, sum(packetBytes)"
scalar scenarioPRJP1.node[60].lo0.lo 	passedUpPk:count 	0
attr interpolationmode  none
attr source  packetSentToUpper
attr title  "packets passed to higher layer, count"
scalar scenarioPRJP1.node[60].lo0.lo 	passedUpPk:sum(packetBytes) 	0
attr interpolationmode  none
attr source  packetSentToUpper
attr title  "packets passed to higher layer, sum(packetBytes)"
scalar scenarioPRJP1.node[34].app 	"Total sent" 	619
scalar scenarioPRJP1.node[34].app 	"Total received" 	83
scalar scenarioPRJP1.node[34].app 	"Total deleted" 	24
scalar scenarioPRJP1.node[34].app 	dropPk:count 	24
attr interpolationmode  none
attr source  dropPk
attr title  "packets dropped, count"
scalar scenarioPRJP1.node[34].app 	dropPk:sum(packetBytes) 	12288
attr interpolationmode  none
attr source  dropPk
attr title  "packets dropped, sum(packetBytes)"
scalar scenarioPRJP1.node[34].app 	outOfOrderPk:count 	0
attr interpolationmode  none
attr source  outOfOrderPk
attr title  "packets received out of order, count"
scalar scenarioPRJP1.node[34].app 	outOfOrderPk:sum(packetBytes) 	0
attr interpolationmode  none
attr source  outOfOrderPk
attr title  "packets received out of order, sum(packetBytes)"
scalar scenarioPRJP1.node[34].app 	rcvdPk:count 	83
attr interpolationmode  none
attr source  rcvdPk
attr title  "packets received, count"
scalar scenarioPRJP1.node[34].app 	rcvdPk:sum(packetBytes) 	42496
attr interpolationmode  none
attr source  rcvdPk
attr title  "packets received, sum(packetBytes)"
statistic scenarioPRJP1.node[34].app 	endToEndDelay:histogram
field count 83
field mean 6.2565029534586
field stddev 6.3863976629847
field sum 519.28974513706
field sqrsum 6593.3959831525
field min 0.000997530033
field max 19.285663636259
attr interpolationmode  none
attr source  messageAge(rcvdPk)
attr title  "delay, histogram"
attr unit  s
bin	-INF	0
bin	-9.64133552308	0
bin	-8.3556911159983	0
bin	-7.0700467089165	0
bin	-5.7844023018348	0
bin	-4.4987578947531	0
bin	-3.2131134876713	0
bin	-1.9274690805896	0
bin	-0.64182467350787	29
bin	0.64381973357387	3
bin	1.9294641406556	7
bin	3.2151085477373	4
bin	4.5007529548191	2
bin	5.7863973619008	3
bin	7.0720417689825	2
bin	8.3576861760643	4
bin	9.643330583146	7
bin	10.928974990228	4
bin	12.214619397309	4
bin	13.500263804391	1
bin	14.785908211473	2
bin	16.071552618555	6
bin	17.357197025636	4
bin	18.642841432718	1
bin	19.9284858398	0
bin	21.214130246882	0
bin	22.499774653963	0
bin	23.785419061045	0
bin	25.071063468127	0
bin	26.356707875209	0
bin	27.64235228229	0
bin	28.927996689372	0
scalar scenarioPRJP1.node[34].app 	sentPk:count 	619
attr interpolationmode  none
attr source  sentPk
attr title  "packets sent, count"
scalar scenarioPRJP1.node[34].app 	sentPk:sum(packetBytes) 	316928
attr interpolationmode  none
attr source  sentPk
attr title  "packets sent, sum(packetBytes)"
scalar scenarioPRJP1.node[34].udp 	droppedPkBadChecksum:count 	0
attr interpolationmode  none
attr title  "packets dropped (checksum error), count"
scalar scenarioPRJP1.node[34].udp 	droppedPkWrongPort:count 	0
attr interpolationmode  none
attr title  "packets dropped (wrong port), count"
scalar scenarioPRJP1.node[34].udp 	passedUpPk:count 	107
attr interpolationmode  none
attr title  "packets passed up, count"
scalar scenarioPRJP1.node[34].udp 	rcvdPk:count 	107
attr interpolationmode  none
attr source  rcvdPk
attr title  "packets received, count"
scalar scenarioPRJP1.node[34].udp 	rcvdPk:sum(packetBytes) 	55640
attr interpolationmode  none
attr source  rcvdPk
attr title  "packets received, sum(packetBytes)"
scalar scenarioPRJP1.node[34].udp 	sentPk:count 	619
attr interpolationmode  none
attr source  sentPk
attr title  "packets sent, count"
scalar scenarioPRJP1.node[34].udp 	sentPk:sum(packetBytes) 	321880
attr interpolationmode  none
attr source  sentPk
attr title  "packets sent, sum(packetBytes)"
scalar scenarioPRJP1.node[34].networkLayer.arp 	failedARPResolution:count 	1
attr title  "ARP failed resolutions, count"
scalar scenarioPRJP1.node[34].networkLayer.arp 	completedARPResolution:count 	175
attr title  "ARP completed resolutions, count"
scalar scenarioPRJP1.node[34].networkLayer.arp 	initiatedARPResolution:count 	19
attr title  "ARP initiated resolutions, count"
scalar scenarioPRJP1.node[34].networkLayer.arp 	sentReply:count 	11
attr title  "ARP replies sent, count"
scalar scenarioPRJP1.node[34].networkLayer.arp 	sentReq:count 	28
attr title  "ARP request sent, count"
scalar scenarioPRJP1.node[34].mobility 	startTime 	2.5
scalar scenarioPRJP1.node[34].mobility 	totalTime 	244.1
scalar scenarioPRJP1.node[34].mobility 	stopTime 	246.7
scalar scenarioPRJP1.node[34].mobility 	minSpeed 	2.4756036594787e-13
scalar scenarioPRJP1.node[34].mobility 	maxSpeed 	17.376931801365
scalar scenarioPRJP1.node[34].mobility 	totalDistance 	2234.8313213765
scalar scenarioPRJP1.node[34].mobility 	totalCO2Emission 	648.36245815449
scalar scenarioPRJP1.node[34].wlan.mgmt 	dataQueueLen:max 	12
attr interpolationmode  sample-hold
attr title  "data queue length, max"
scalar scenarioPRJP1.node[34].wlan.mgmt 	dataQueueLen:timeavg 	0
attr interpolationmode  sample-hold
attr title  "data queue length, timeavg"
scalar scenarioPRJP1.node[34].wlan.mgmt 	dropPkByQueue:count 	0
attr interpolationmode  none
attr source  dropPkByQueue
attr title  "packets dropped by queue, count"
scalar scenarioPRJP1.node[34].wlan.mgmt 	dropPkByQueue:sum(packetBytes) 	0
attr interpolationmode  none
attr source  dropPkByQueue
attr title  "packets dropped by queue, sum(packetBytes)"
scalar scenarioPRJP1.node[34].wlan.mac 	"number of received packets" 	1455
scalar scenarioPRJP1.node[34].wlan.mac 	"number of collisions" 	8430
scalar scenarioPRJP1.node[34].wlan.mac 	"number of internal collisions" 	0
scalar scenarioPRJP1.node[34].wlan.mac 	"number of retry for AC 0" 	2923
scalar scenarioPRJP1.node[34].wlan.mac 	"number of retry for AC 1" 	0
scalar scenarioPRJP1.node[34].wlan.mac 	"number of retry for AC 2" 	0
scalar scenarioPRJP1.node[34].wlan.mac 	"number of retry for AC 3" 	0
scalar scenarioPRJP1.node[34].wlan.mac 	"sent and received bits" 	5109232
scalar scenarioPRJP1.node[34].wlan.mac 	"sent packet within AC 0" 	215
scalar scenarioPRJP1.node[34].wlan.mac 	"sent packet within AC 1" 	0
scalar scenarioPRJP1.node[34].wlan.mac 	"sent packet within AC 2" 	0
scalar scenarioPRJP1.node[34].wlan.mac 	"sent packet within AC 3" 	0
scalar scenarioPRJP1.node[34].wlan.mac 	"sent in TXOP " 	0
scalar scenarioPRJP1.node[34].wlan.mac 	"sentWithoutRetry AC 0" 	171
scalar scenarioPRJP1.node[34].wlan.mac 	"sentWithoutRetry AC 1" 	0
scalar scenarioPRJP1.node[34].wlan.mac 	"sentWithoutRetry AC 2" 	0
scalar scenarioPRJP1.node[34].wlan.mac 	"sentWithoutRetry AC 3" 	0
scalar scenarioPRJP1.node[34].wlan.mac 	"numGivenUp AC 0" 	468
scalar scenarioPRJP1.node[34].wlan.mac 	"numGivenUp AC 1" 	0
scalar scenarioPRJP1.node[34].wlan.mac 	"numGivenUp AC 2" 	0
scalar scenarioPRJP1.node[34].wlan.mac 	"numGivenUp AC 3" 	0
scalar scenarioPRJP1.node[34].wlan.mac 	"numDropped AC 0" 	0
scalar scenarioPRJP1.node[34].wlan.mac 	"numDropped AC 1" 	0
scalar scenarioPRJP1.node[34].wlan.mac 	"numDropped AC 2" 	0
scalar scenarioPRJP1.node[34].wlan.mac 	"numDropped AC 3" 	0
scalar scenarioPRJP1.node[34].wlan.mac 	rcvdPkFromLL:count 	40983
attr interpolationmode  none
attr source  packetReceivedFromLower
attr title  "packets received from lower layer, count"
scalar scenarioPRJP1.node[34].wlan.mac 	rcvdPkFromLL:sum(packetBytes) 	12177070
attr interpolationmode  none
attr source  packetReceivedFromLower
attr title  "packets received from lower layer, sum(packetBytes)"
scalar scenarioPRJP1.node[34].wlan.mac 	sentDownPk:count 	8739
attr interpolationmode  none
attr source  packetSentToLower
attr title  "packets sent to lower layer, count"
scalar scenarioPRJP1.node[34].wlan.mac 	sentDownPk:sum(packetBytes) 	2573278
attr interpolationmode  none
attr source  packetSentToLower
attr title  "packets sent to lower layer, sum(packetBytes)"
scalar scenarioPRJP1.node[34].wlan.mac 	rcvdPkFromHL:count 	4361
attr interpolationmode  none
attr source  packetReceivedFromUpper
attr title  "packets received from higher layer, count"
scalar scenarioPRJP1.node[34].wlan.mac 	rcvdPkFromHL:sum(packetBytes) 	902656
attr interpolationmode  none
attr source  packetReceivedFromUpper
attr title  "packets received from higher layer, sum(packetBytes)"
scalar scenarioPRJP1.node[34].wlan.mac 	passedUpPk:count 	14199
attr interpolationmode  none
attr source  packetSentToUpper
attr title  "packets passed to higher layer, count"
scalar scenarioPRJP1.node[34].wlan.mac 	passedUpPk:sum(packetBytes) 	2270937
attr interpolationmode  none
attr source  packetSentToUpper
attr title  "packets passed to higher layer, sum(packetBytes)"
statistic scenarioPRJP1.node[34].wlan.radio 	radioChannel:histogram
field count 1
field mean 3
field stddev -nan
field sum 3
field sqrsum 9
field min 3
field max 3
attr interpolationmode  sample-hold
attr source  radioChannelChanged
attr title  "Radio channel, histogram"
bin	-INF	0
bin	2	0
bin	3	1
bin	4	0
scalar scenarioPRJP1.node[34].wlan.radio 	transmissionState:count 	34956
attr interpolationmode  sample-hold
attr source  transmissionStateChanged
attr title  "Radio transmission state, count"
scalar scenarioPRJP1.node[34].wlan.radio 	receptionState:count 	101221
attr interpolationmode  sample-hold
attr source  receptionStateChanged
attr title  "Radio reception state, count"
scalar scenarioPRJP1.node[34].wlan.radio 	radioMode:count 	17480
attr interpolationmode  sample-hold
attr source  radioModeChanged
attr title  "Radio mode, count"
statistic scenarioPRJP1.node[34].wlan.radio 	symbolErrorRate:histogram
field count 0
field mean -nan
field stddev -nan
field sum 0
field sqrsum 0
field min -nan
field max -nan
attr source  symbolErrorRate
attr title  "Symbol error rate, histogram"
bin	-INF	0
bin	-0.5	0
bin	-0.46666666666667	0
bin	-0.43333333333333	0
bin	-0.4	0
bin	-0.36666666666667	0
bin	-0.33333333333333	0
bin	-0.3	0
bin	-0.26666666666667	0
bin	-0.23333333333333	0
bin	-0.2	0
bin	-0.16666666666667	0
bin	-0.13333333333333	0
bin	-0.1	0
bin	-0.066666666666667	0
bin	-0.033333333333333	0
bin	0	0
bin	0.033333333333333	0
bin	0.066666666666667	0
bin	0.1	0
bin	0.13333333333333	0
bin	0.16666666666667	0
bin	0.2	0
bin	0.23333333333333	0
bin	0.26666666666667	0
bin	0.3	0
bin	0.33333333333333	0
bin	0.36666666666667	0
bin	0.4	0
bin	0.43333333333333	0
bin	0.46666666666667	0
bin	0.5	0
statistic scenarioPRJP1.node[34].wlan.radio 	bitErrorRate:histogram
field count 0
field mean -nan
field stddev -nan
field sum 0
field sqrsum 0
field min -nan
field max -nan
attr source  bitErrorRate
attr title  "Bit error rate, histogram"
bin	-INF	0
bin	-0.5	0
bin	-0.46666666666667	0
bin	-0.43333333333333	0
bin	-0.4	0
bin	-0.36666666666667	0
bin	-0.33333333333333	0
bin	-0.3	0
bin	-0.26666666666667	0
bin	-0.23333333333333	0
bin	-0.2	0
bin	-0.16666666666667	0
bin	-0.13333333333333	0
bin	-0.1	0
bin	-0.066666666666667	0
bin	-0.033333333333333	0
bin	0	0
bin	0.033333333333333	0
bin	0.066666666666667	0
bin	0.1	0
bin	0.13333333333333	0
bin	0.16666666666667	0
bin	0.2	0
bin	0.23333333333333	0
bin	0.26666666666667	0
bin	0.3	0
bin	0.33333333333333	0
bin	0.36666666666667	0
bin	0.4	0
bin	0.43333333333333	0
bin	0.46666666666667	0
bin	0.5	0
statistic scenarioPRJP1.node[34].wlan.radio 	packetErrorRate:histogram
field count 40983
field mean 0.18403556979429
field stddev 0.37778265721947
field sum 7542.3297568792
field sqrsum 7236.9971790617
field min 0
field max 1
attr source  packetErrorRate
attr title  "Packet error rate, histogram"
bin	-INF	0
bin	-0.00084670191435493	0
bin	-0.00073380832577427	0
bin	-0.00062091473719362	0
bin	-0.00050802114861296	0
bin	-0.0003951275600323	0
bin	-0.00028223397145164	0
bin	-0.00016934038287099	0
bin	-5.6446794290329e-05	29444
bin	5.6446794290329e-05	414
bin	0.00016934038287099	227
bin	0.00028223397145164	130
bin	0.0003951275600323	117
bin	0.00050802114861296	90
bin	0.00062091473719362	71
bin	0.00073380832577427	67
bin	0.00084670191435493	53
bin	0.00095959550293559	54
bin	0.0010724890915162	44
bin	0.0011853826800969	31
bin	0.0012982762686776	33
bin	0.0014111698572582	28
bin	0.0015240634458389	29
bin	0.0016369570344195	23
bin	0.0017498506230002	21
bin	0.0018627442115808	33
bin	0.0019756378001615	21
bin	0.0020885313887422	30
bin	0.0022014249773228	26
bin	0.0023143185659035	14
bin	0.0024272121544841	17
bin	0.0025401057430648	9966
statistic scenarioPRJP1.node[34].wlan.radio 	minSNIR:histogram
field count 40983
field mean 6206.802893677
field stddev 50992.7491973
field sum 254373402.99157
field sqrsum 1.0814272018394e+14
field min 0.00016931662047402
field max 753239.71923443
attr source  minSNIR
attr title  "Min SNIR, histogram"
bin	-INF	0
bin	-16482.459869926	0
bin	-14284.438132552	0
bin	-12086.416395177	0
bin	-9888.3946578029	0
bin	-7690.3729204284	0
bin	-5492.3511830539	0
bin	-3294.3294456794	0
bin	-1096.3077083049	36163
bin	1101.7140290696	1358
bin	3299.7357664441	683
bin	5497.7575038185	483
bin	7695.779241193	358
bin	9893.8009785675	237
bin	12091.822715942	179
bin	14289.844453317	120
bin	16487.866190691	98
bin	18685.887928066	69
bin	20883.90966544	67
bin	23081.931402815	62
bin	25279.953140189	60
bin	27477.974877564	21
bin	29675.996614938	26
bin	31874.018352313	27
bin	34072.040089687	18
bin	36270.061827062	23
bin	38468.083564436	18
bin	40666.105301811	10
bin	42864.127039185	21
bin	45062.14877656	39
bin	47260.170513934	14
bin	49458.192251309	829
scalar scenarioPRJP1.node[34].lo0.lo 	droppedPkBitError:count 	0
attr interpolationmode  none
attr source  dropPkBitError
attr title  "packets dropped/bit error, count"
scalar scenarioPRJP1.node[34].lo0.lo 	droppedPkBitError:sum(packetBytes) 	0
attr interpolationmode  none
attr source  dropPkBitError
attr title  "packets dropped/bit error, sum(packetBytes)"
scalar scenarioPRJP1.node[34].lo0.lo 	rcvdPkFromHL:count 	0
attr interpolationmode  none
attr source  packetReceivedFromUpper
attr title  "packets received from higher layer, count"
scalar scenarioPRJP1.node[34].lo0.lo 	rcvdPkFromHL:sum(packetBytes) 	0
attr interpolationmode  none
attr source  packetReceivedFromUpper
attr title  "packets received from higher layer, sum(packetBytes)"
scalar scenarioPRJP1.node[34].lo0.lo 	passedUpPk:count 	0
attr interpolationmode  none
attr source  packetSentToUpper
attr title  "packets passed to higher layer, count"
scalar scenarioPRJP1.node[34].lo0.lo 	passedUpPk:sum(packetBytes) 	0
attr interpolationmode  none
attr source  packetSentToUpper
attr title  "packets passed to higher layer, sum(packetBytes)"
scalar scenarioPRJP1.node[87].app 	"Total sent" 	710
scalar scenarioPRJP1.node[87].app 	"Total received" 	106
scalar scenarioPRJP1.node[87].app 	"Total deleted" 	18
scalar scenarioPRJP1.node[87].app 	dropPk:count 	18
attr interpolationmode  none
attr source  dropPk
attr title  "packets dropped, count"
scalar scenarioPRJP1.node[87].app 	dropPk:sum(packetBytes) 	9216
attr interpolationmode  none
attr source  dropPk
attr title  "packets dropped, sum(packetBytes)"
scalar scenarioPRJP1.node[87].app 	outOfOrderPk:count 	0
attr interpolationmode  none
attr source  outOfOrderPk
attr title  "packets received out of order, count"
scalar scenarioPRJP1.node[87].app 	outOfOrderPk:sum(packetBytes) 	0
attr interpolationmode  none
attr source  outOfOrderPk
attr title  "packets received out of order, sum(packetBytes)"
scalar scenarioPRJP1.node[87].app 	rcvdPk:count 	106
attr interpolationmode  none
attr source  rcvdPk
attr title  "packets received, count"
scalar scenarioPRJP1.node[87].app 	rcvdPk:sum(packetBytes) 	54272
attr interpolationmode  none
attr source  rcvdPk
attr title  "packets received, sum(packetBytes)"
statistic scenarioPRJP1.node[87].app 	endToEndDelay:histogram
field count 106
field mean 4.8368734887284
field stddev 5.6203801518415
field sum 512.70858980521
field sqrsum 5796.7172558496
field min 0.000945064271
field max 19.145019927386
attr interpolationmode  none
attr source  messageAge(rcvdPk)
attr title  "delay, histogram"
attr unit  s
bin	-INF	0
bin	-9.5710923672865	0
bin	-8.2948207097455	0
bin	-7.0185490522045	0
bin	-5.7422773946635	0
bin	-4.4660057371225	0
bin	-3.1897340795815	0
bin	-1.9134624220405	0
bin	-0.6371907644995	40
bin	0.6390808930415	12
bin	1.9153525505825	6
bin	3.1916242081235	7
bin	4.4678958656645	3
bin	5.7441675232055	1
bin	7.0204391807465	5
bin	8.2967108382875	5
bin	9.5729824958285	7
bin	10.849254153369	2
bin	12.12552581091	8
bin	13.401797468451	3
bin	14.678069125992	2
bin	15.954340783533	2
bin	17.230612441074	2
bin	18.506884098616	1
bin	19.783155756156	0
bin	21.059427413697	0
bin	22.335699071238	0
bin	23.611970728779	0
bin	24.88824238632	0
bin	26.164514043862	0
bin	27.440785701402	0
bin	28.717057358943	0
scalar scenarioPRJP1.node[87].app 	sentPk:count 	710
attr interpolationmode  none
attr source  sentPk
attr title  "packets sent, count"
scalar scenarioPRJP1.node[87].app 	sentPk:sum(packetBytes) 	363520
attr interpolationmode  none
attr source  sentPk
attr title  "packets sent, sum(packetBytes)"
scalar scenarioPRJP1.node[87].udp 	droppedPkBadChecksum:count 	0
attr interpolationmode  none
attr title  "packets dropped (checksum error), count"
scalar scenarioPRJP1.node[87].udp 	droppedPkWrongPort:count 	0
attr interpolationmode  none
attr title  "packets dropped (wrong port), count"
scalar scenarioPRJP1.node[87].udp 	passedUpPk:count 	124
attr interpolationmode  none
attr title  "packets passed up, count"
scalar scenarioPRJP1.node[87].udp 	rcvdPk:count 	124
attr interpolationmode  none
attr source  rcvdPk
attr title  "packets received, count"
scalar scenarioPRJP1.node[87].udp 	rcvdPk:sum(packetBytes) 	64480
attr interpolationmode  none
attr source  rcvdPk
attr title  "packets received, sum(packetBytes)"
scalar scenarioPRJP1.node[87].udp 	sentPk:count 	710
attr interpolationmode  none
attr source  sentPk
attr title  "packets sent, count"
scalar scenarioPRJP1.node[87].udp 	sentPk:sum(packetBytes) 	369200
attr interpolationmode  none
attr source  sentPk
attr title  "packets sent, sum(packetBytes)"
scalar scenarioPRJP1.node[87].networkLayer.arp 	failedARPResolution:count 	3
attr title  "ARP failed resolutions, count"
scalar scenarioPRJP1.node[87].networkLayer.arp 	completedARPResolution:count 	259
attr title  "ARP completed resolutions, count"
scalar scenarioPRJP1.node[87].networkLayer.arp 	initiatedARPResolution:count 	27
attr title  "ARP initiated resolutions, count"
scalar scenarioPRJP1.node[87].networkLayer.arp 	sentReply:count 	18
attr title  "ARP replies sent, count"
scalar scenarioPRJP1.node[87].networkLayer.arp 	sentReq:count 	46
attr title  "ARP request sent, count"
scalar scenarioPRJP1.node[87].mobility 	startTime 	9.7
scalar scenarioPRJP1.node[87].mobility 	totalTime 	272.3
scalar scenarioPRJP1.node[87].mobility 	stopTime 	282.1
scalar scenarioPRJP1.node[87].mobility 	minSpeed 	2.4754547515997e-13
scalar scenarioPRJP1.node[87].mobility 	maxSpeed 	19.462622668719
scalar scenarioPRJP1.node[87].mobility 	totalDistance 	2204.8137727297
scalar scenarioPRJP1.node[87].mobility 	totalCO2Emission 	730.00435736452
scalar scenarioPRJP1.node[87].wlan.mgmt 	dataQueueLen:max 	18
attr interpolationmode  sample-hold
attr title  "data queue length, max"
scalar scenarioPRJP1.node[87].wlan.mgmt 	dataQueueLen:timeavg 	0
attr interpolationmode  sample-hold
attr title  "data queue length, timeavg"
scalar scenarioPRJP1.node[87].wlan.mgmt 	dropPkByQueue:count 	0
attr interpolationmode  none
attr source  dropPkByQueue
attr title  "packets dropped by queue, count"
scalar scenarioPRJP1.node[87].wlan.mgmt 	dropPkByQueue:sum(packetBytes) 	0
attr interpolationmode  none
attr source  dropPkByQueue
attr title  "packets dropped by queue, sum(packetBytes)"
scalar scenarioPRJP1.node[87].wlan.mac 	"number of received packets" 	1284
scalar scenarioPRJP1.node[87].wlan.mac 	"number of collisions" 	16390
scalar scenarioPRJP1.node[87].wlan.mac 	"number of internal collisions" 	0
scalar scenarioPRJP1.node[87].wlan.mac 	"number of retry for AC 0" 	2802
scalar scenarioPRJP1.node[87].wlan.mac 	"number of retry for AC 1" 	0
scalar scenarioPRJP1.node[87].wlan.mac 	"number of retry for AC 2" 	0
scalar scenarioPRJP1.node[87].wlan.mac 	"number of retry for AC 3" 	0
scalar scenarioPRJP1.node[87].wlan.mac 	"sent and received bits" 	5981464
scalar scenarioPRJP1.node[87].wlan.mac 	"sent packet within AC 0" 	304
scalar scenarioPRJP1.node[87].wlan.mac 	"sent packet within AC 1" 	0
scalar scenarioPRJP1.node[87].wlan.mac 	"sent packet within AC 2" 	0
scalar scenarioPRJP1.node[87].wlan.mac 	"sent packet within AC 3" 	0
scalar scenarioPRJP1.node[87].wlan.mac 	"sent in TXOP " 	0
scalar scenarioPRJP1.node[87].wlan.mac 	"sentWithoutRetry AC 0" 	242
scalar scenarioPRJP1.node[87].wlan.mac 	"sentWithoutRetry AC 1" 	0
scalar scenarioPRJP1.node[87].wlan.mac 	"sentWithoutRetry AC 2" 	0
scalar scenarioPRJP1.node[87].wlan.mac 	"sentWithoutRetry AC 3" 	0
scalar scenarioPRJP1.node[87].wlan.mac 	"numGivenUp AC 0" 	442
scalar scenarioPRJP1.node[87].wlan.mac 	"numGivenUp AC 1" 	0
scalar scenarioPRJP1.node[87].wlan.mac 	"numGivenUp AC 2" 	0
scalar scenarioPRJP1.node[87].wlan.mac 	"numGivenUp AC 3" 	0
scalar scenarioPRJP1.node[87].wlan.mac 	"numDropped AC 0" 	0
scalar scenarioPRJP1.node[87].wlan.mac 	"numDropped AC 1" 	0
scalar scenarioPRJP1.node[87].wlan.mac 	"numDropped AC 2" 	0
scalar scenarioPRJP1.node[87].wlan.mac 	"numDropped AC 3" 	0
scalar scenarioPRJP1.node[87].wlan.mac 	rcvdPkFromLL:count 	68694
attr interpolationmode  none
attr source  packetReceivedFromLower
attr title  "packets received from lower layer, count"
scalar scenarioPRJP1.node[87].wlan.mac 	rcvdPkFromLL:sum(packetBytes) 	21990463
attr interpolationmode  none
attr source  packetReceivedFromLower
attr title  "packets received from lower layer, sum(packetBytes)"
scalar scenarioPRJP1.node[87].wlan.mac 	sentDownPk:count 	9007
attr interpolationmode  none
attr source  packetSentToLower
attr title  "packets sent to lower layer, count"
scalar scenarioPRJP1.node[87].wlan.mac 	sentDownPk:sum(packetBytes) 	2576437
attr interpolationmode  none
attr source  packetSentToLower
attr title  "packets sent to lower layer, sum(packetBytes)"
scalar scenarioPRJP1.node[87].wlan.mac 	rcvdPkFromHL:count 	4921
attr interpolationmode  none
attr source  packetReceivedFromUpper
attr title  "packets received from higher layer, count"
scalar scenarioPRJP1.node[87].wlan.mac 	rcvdPkFromHL:sum(packetBytes) 	994169
attr interpolationmode  none
attr source  packetReceivedFromUpper
attr title  "packets received from higher layer, sum(packetBytes)"
scalar scenarioPRJP1.node[87].wlan.mac 	passedUpPk:count 	20374
attr interpolationmode  none
attr source  packetSentToUpper
attr title  "packets passed to higher layer, count"
scalar scenarioPRJP1.node[87].wlan.mac 	passedUpPk:sum(packetBytes) 	3091447
attr interpolationmode  none
attr source  packetSentToUpper
attr title  "packets passed to higher layer, sum(packetBytes)"
statistic scenarioPRJP1.node[87].wlan.radio 	radioChannel:histogram
field count 1
field mean 3
field stddev -nan
field sum 3
field sqrsum 9
field min 3
field max 3
attr interpolationmode  sample-hold
attr source  radioChannelChanged
attr title  "Radio channel, histogram"
bin	-INF	0
bin	2	0
bin	3	1
bin	4	0
scalar scenarioPRJP1.node[87].wlan.radio 	transmissionState:count 	36028
attr interpolationmode  sample-hold
attr source  transmissionStateChanged
attr title  "Radio transmission state, count"
scalar scenarioPRJP1.node[87].wlan.radio 	receptionState:count 	160592
[...]
scalar scenarioPRJP1.node[75].wlan.mac 	passedUpPk:count 	51572
attr interpolationmode  none
attr source  packetSentToUpper
attr title  "packets passed to higher layer, count"
scalar scenarioPRJP1.node[75].wlan.mac 	passedUpPk:sum(packetBytes) 	7795255
attr interpolationmode  none
attr source  packetSentToUpper
attr title  "packets passed to higher layer, sum(packetBytes)"
statistic scenarioPRJP1.node[75].wlan.radio 	radioChannel:histogram
field count 1
field mean 3
field stddev -nan
field sum 3
field sqrsum 9
field min 3
field max 3
attr interpolationmode  sample-hold
attr source  radioChannelChanged
attr title  "Radio channel, histogram"
bin	-INF	0
bin	2	0
bin	3	1
bin	4	0
scalar scenarioPRJP1.node[75].wlan.radio 	transmissionState:count 	120944
attr interpolationmode  sample-hold
attr source  transmissionStateChanged
attr title  "Radio transmission state, count"
scalar scenarioPRJP1.node[75].wlan.radio 	receptionState:count 	386179
attr interpolationmode  sample-hold
attr source  receptionStateChanged
attr title  "Radio reception state, count"
scalar scenarioPRJP1.node[75].wlan.radio 	radioMode:count 	60474
attr interpolationmode  sample-hold
attr source  radioModeChanged
attr title  "Radio mode, count"
statistic scenarioPRJP1.node[75].wlan.radio 	symbolErrorRate:histogram
field count 0
field mean -nan
field stddev -nan
field sum 0
field sqrsum 0
field min -nan
field max -nan
attr source  symbolErrorRate
attr title  "Symbol error rate, histogram"
bin	-INF	0
bin	-0.5	0
bin	-0.46666666666667	0
bin	-0.43333333333333	0
bin	-0.4	0
bin	-0.36666666666667	0
bin	-0.33333333333333	0
bin	-0.3	0
bin	-0.26666666666667	0
bin	-0.23333333333333	0
bin	-0.2	0
bin	-0.16666666666667	0
bin	-0.13333333333333	0
bin	-0.1	0
bin	-0.066666666666667	0
bin	-0.033333333333333	0
bin	0	0
bin	0.033333333333333	0
bin	0.066666666666667	0
bin	0.1	0
bin	0.13333333333333	0
bin	0.16666666666667	0
bin	0.2	0
bin	0.23333333333333	0
bin	0.26666666666667	0
bin	0.3	0
bin	0.33333333333333	0
bin	0.36666666666667	0
bin	0.4	0
bin	0.43333333333333	0
bin	0.46666666666667	0
bin	0.5	0
statistic scenarioPRJP1.node[75].wlan.radio 	bitErrorRate:histogram
field count 0
field mean -nan
field stddev -nan
field sum 0
field sqrsum 0
field min -nan
field max -nan
attr source  bitErrorRate
attr title  "Bit error rate, histogram"
bin	-INF	0
bin	-0.5	0
bin	-0.46666666666667	0
bin	-0.43333333333333	0
bin	-0.4	0
bin	-0.36666666666667	0
bin	-0.33333333333333	0
bin	-0.3	0
bin	-0.26666666666667	0
bin	-0.23333333333333	0
bin	-0.2	0
bin	-0.16666666666667	0
bin	-0.13333333333333	0
bin	-0.1	0
bin	-0.066666666666667	0
bin	-0.033333333333333	0
bin	0	0
bin	0.033333333333333	0
bin	0.066666666666667	0
bin	0.1	0
bin	0.13333333333333	0
bin	0.16666666666667	0
bin	0.2	0
bin	0.23333333333333	0
bin	0.26666666666667	0
bin	0.3	0
bin	0.33333333333333	0
bin	0.36666666666667	0
bin	0.4	0
bin	0.43333333333333	0
bin	0.46666666666667	0
bin	0.5	0
statistic scenarioPRJP1.node[75].wlan.radio 	packetErrorRate:histogram
field count 157589
field mean 0.22971692855072
field stddev 0.41097147423204
field sum 36200.861053379
field sqrsum 34932.178136317
field min 0
field max 1
attr source  packetErrorRate
attr title  "Packet error rate, histogram"
bin	-INF	0
bin	-0.5	0
bin	-0.43333333333333	0
bin	-0.36666666666667	0
bin	-0.3	0
bin	-0.23333333333333	0
bin	-0.16666666666667	0
bin	-0.1	0
bin	-0.033333333333333	116161
bin	0.033333333333333	2119
bin	0.1	1002
bin	0.16666666666667	722
bin	0.23333333333333	592
bin	0.3	458
bin	0.36666666666667	415
bin	0.43333333333333	368
bin	0.5	339
bin	0.56666666666667	323
bin	0.63333333333333	317
bin	0.7	306
bin	0.76666666666667	356
bin	0.83333333333333	456
bin	0.9	682
bin	0.96666666666667	32973
bin	1.0333333333333	0
bin	1.1	0
bin	1.1666666666667	0
bin	1.2333333333333	0
bin	1.3	0
bin	1.3666666666667	0
bin	1.4333333333333	0
bin	1.5	0
statistic scenarioPRJP1.node[75].wlan.radio 	minSNIR:histogram
field count 157589
field mean 2108.2317924716
field stddev 25005.789243938
field sum 332234139.94381
field sqrsum 99238547626676
field min 0.00016916511933487
field max 753239.71923443
attr source  minSNIR
attr title  "Min SNIR, histogram"
bin	-INF	0
bin	-81590.959658023	0
bin	-70712.156795511	0
bin	-59833.353932998	0
bin	-48954.551070486	0
bin	-38075.748207974	0
bin	-27196.945345462	0
bin	-16318.14248295	0
bin	-5439.3396204377	152009
bin	5439.4632420744	3180
bin	16318.266104587	767
bin	27197.068967099	301
bin	38075.871829611	249
bin	48954.674692123	120
bin	59833.477554635	94
bin	70712.280417147	83
bin	81591.083279659	58
bin	92469.886142172	40
bin	103348.68900468	39
bin	114227.4918672	29
bin	125106.29472971	31
bin	135985.09759222	69
bin	146863.90045473	16
bin	157742.70331724	26
bin	168621.50617976	126
bin	179500.30904227	27
bin	190379.11190478	17
bin	201257.91476729	12
bin	212136.71762981	6
bin	223015.52049232	10
bin	233894.32335483	5
bin	244773.12621734	275
scalar scenarioPRJP1.node[75].lo0.lo 	droppedPkBitError:count 	0
attr interpolationmode  none
attr source  dropPkBitError
attr title  "packets dropped/bit error, count"
scalar scenarioPRJP1.node[75].lo0.lo 	droppedPkBitError:sum(packetBytes) 	0
attr interpolationmode  none
attr source  dropPkBitError
attr title  "packets dropped/bit error, sum(packetBytes)"
scalar scenarioPRJP1.node[75].lo0.lo 	rcvdPkFromHL:count 	0
attr interpolationmode  none
attr source  packetReceivedFromUpper
attr title  "packets received from higher layer, count"
scalar scenarioPRJP1.node[75].lo0.lo 	rcvdPkFromHL:sum(packetBytes) 	0
attr interpolationmode  none
attr source  packetReceivedFromUpper
attr title  "packets received from higher layer, sum(packetBytes)"
scalar scenarioPRJP1.node[75].lo0.lo 	passedUpPk:count 	0
attr interpolationmode  none
attr source  packetSentToUpper
attr title  "packets passed to higher layer, count"
scalar scenarioPRJP1.node[75].lo0.lo 	passedUpPk:sum(packetBytes) 	0
attr interpolationmode  none
attr source  packetSentToUpper
attr title  "packets passed to higher layer, sum(packetBytes)"
scalar scenarioPRJP1.node[95].app 	"Total sent" 	2610
scalar scenarioPRJP1.node[95].app 	"Total received" 	423
scalar scenarioPRJP1.node[95].app 	"Total deleted" 	56
scalar scenarioPRJP1.node[95].app 	dropPk:count 	56
attr interpolationmode  none
attr source  dropPk
attr title  "packets dropped, count"
scalar scenarioPRJP1.node[95].app 	dropPk:sum(packetBytes) 	28672
attr interpolationmode  none
attr source  dropPk
attr title  "packets dropped, sum(packetBytes)"
scalar scenarioPRJP1.node[95].app 	outOfOrderPk:count 	0
attr interpolationmode  none
attr source  outOfOrderPk
attr title  "packets received out of order, count"
scalar scenarioPRJP1.node[95].app 	outOfOrderPk:sum(packetBytes) 	0
attr interpolationmode  none
attr source  outOfOrderPk
attr title  "packets received out of order, sum(packetBytes)"
scalar scenarioPRJP1.node[95].app 	rcvdPk:count 	423
attr interpolationmode  none
attr source  rcvdPk
attr title  "packets received, count"
scalar scenarioPRJP1.node[95].app 	rcvdPk:sum(packetBytes) 	216576
attr interpolationmode  none
attr source  rcvdPk
attr title  "packets received, sum(packetBytes)"
statistic scenarioPRJP1.node[95].app 	endToEndDelay:histogram
field count 423
field mean 5.1044828059761
field stddev 6.0035775635493
field sum 2159.1962269279
field sqrsum 26231.702198057
field min 0.000945016153
field max 19.845531146345
attr interpolationmode  none
attr source  messageAge(rcvdPk)
attr title  "delay, histogram"
attr unit  s
bin	-INF	0
bin	-9.9212308704985	0
bin	-8.5982636697499	0
bin	-7.2752964690013	0
bin	-5.9523292682527	0
bin	-4.6293620675041	0
bin	-3.3063948667555	0
bin	-1.9834276660069	0
bin	-0.6604604652583	180
bin	0.6625067354903	26
bin	1.9854739362389	26
bin	3.3084411369875	15
bin	4.6314083377361	21
bin	5.9543755384847	15
bin	7.2773427392333	17
bin	8.6003099399819	24
bin	9.9232771407305	19
bin	11.246244341479	19
bin	12.569211542228	15
bin	13.892178742976	5
bin	15.215145943725	9
bin	16.538113144473	10
bin	17.861080345222	14
bin	19.184047545971	8
bin	20.507014746719	0
bin	21.829981947468	0
bin	23.152949148216	0
bin	24.475916348965	0
bin	25.798883549714	0
bin	27.121850750462	0
bin	28.444817951211	0
bin	29.76778515196	0
scalar scenarioPRJP1.node[95].app 	sentPk:count 	2610
attr interpolationmode  none
attr source  sentPk
attr title  "packets sent, count"
scalar scenarioPRJP1.node[95].app 	sentPk:sum(packetBytes) 	1336320
attr interpolationmode  none
attr source  sentPk
attr title  "packets sent, sum(packetBytes)"
scalar scenarioPRJP1.node[95].udp 	droppedPkBadChecksum:count 	0
attr interpolationmode  none
attr title  "packets dropped (checksum error), count"
scalar scenarioPRJP1.node[95].udp 	droppedPkWrongPort:count 	0
attr interpolationmode  none
attr title  "packets dropped (wrong port), count"
scalar scenarioPRJP1.node[95].udp 	passedUpPk:count 	479
attr interpolationmode  none
attr title  "packets passed up, count"
scalar scenarioPRJP1.node[95].udp 	rcvdPk:count 	479
attr interpolationmode  none
attr source  rcvdPk
attr title  "packets received, count"
scalar scenarioPRJP1.node[95].udp 	rcvdPk:sum(packetBytes) 	249080
attr interpolationmode  none
attr source  rcvdPk
attr title  "packets received, sum(packetBytes)"
scalar scenarioPRJP1.node[95].udp 	sentPk:count 	2610
attr interpolationmode  none
attr source  sentPk
attr title  "packets sent, count"
scalar scenarioPRJP1.node[95].udp 	sentPk:sum(packetBytes) 	1357200
attr interpolationmode  none
attr source  sentPk
attr title  "packets sent, sum(packetBytes)"
scalar scenarioPRJP1.node[95].networkLayer.arp 	failedARPResolution:count 	8
attr title  "ARP failed resolutions, count"
scalar scenarioPRJP1.node[95].networkLayer.arp 	completedARPResolution:count 	714
attr title  "ARP completed resolutions, count"
scalar scenarioPRJP1.node[95].networkLayer.arp 	initiatedARPResolution:count 	93
attr title  "ARP initiated resolutions, count"
scalar scenarioPRJP1.node[95].networkLayer.arp 	sentReply:count 	68
attr title  "ARP replies sent, count"
scalar scenarioPRJP1.node[95].networkLayer.arp 	sentReq:count 	153
attr title  "ARP request sent, count"
scalar scenarioPRJP1.node[95].mobility 	startTime 	9.7
scalar scenarioPRJP1.node[95].mobility 	totalTime 	940.3
scalar scenarioPRJP1.node[95].mobility 	stopTime 	950
scalar scenarioPRJP1.node[95].mobility 	minSpeed 	2.475561581407e-13
scalar scenarioPRJP1.node[95].mobility 	maxSpeed 	19.493470840598
scalar scenarioPRJP1.node[95].mobility 	totalDistance 	8533.4584806911
scalar scenarioPRJP1.node[95].mobility 	totalCO2Emission 	2574.196845754
scalar scenarioPRJP1.node[95].wlan.mgmt 	dataQueueLen:max 	61
attr interpolationmode  sample-hold
attr title  "data queue length, max"
scalar scenarioPRJP1.node[95].wlan.mgmt 	dataQueueLen:timeavg 	0.0038909120003775
attr interpolationmode  sample-hold
attr title  "data queue length, timeavg"
scalar scenarioPRJP1.node[95].wlan.mgmt 	dropPkByQueue:count 	0
attr interpolationmode  none
attr source  dropPkByQueue
attr title  "packets dropped by queue, count"
scalar scenarioPRJP1.node[95].wlan.mgmt 	dropPkByQueue:sum(packetBytes) 	0
attr interpolationmode  none
attr source  dropPkByQueue
attr title  "packets dropped by queue, sum(packetBytes)"
scalar scenarioPRJP1.node[95].wlan.mac 	"number of received packets" 	5166
scalar scenarioPRJP1.node[95].wlan.mac 	"number of collisions" 	51314
scalar scenarioPRJP1.node[95].wlan.mac 	"number of internal collisions" 	0
scalar scenarioPRJP1.node[95].wlan.mac 	"number of retry for AC 0" 	11540
scalar scenarioPRJP1.node[95].wlan.mac 	"number of retry for AC 1" 	0
scalar scenarioPRJP1.node[95].wlan.mac 	"number of retry for AC 2" 	0
scalar scenarioPRJP1.node[95].wlan.mac 	"number of retry for AC 3" 	0
scalar scenarioPRJP1.node[95].wlan.mac 	"sent and received bits" 	21825352
scalar scenarioPRJP1.node[95].wlan.mac 	"sent packet within AC 0" 	1100
scalar scenarioPRJP1.node[95].wlan.mac 	"sent packet within AC 1" 	0
scalar scenarioPRJP1.node[95].wlan.mac 	"sent packet within AC 2" 	0
scalar scenarioPRJP1.node[95].wlan.mac 	"sent packet within AC 3" 	0
scalar scenarioPRJP1.node[95].wlan.mac 	"sent in TXOP " 	0
scalar scenarioPRJP1.node[95].wlan.mac 	"sentWithoutRetry AC 0" 	817
scalar scenarioPRJP1.node[95].wlan.mac 	"sentWithoutRetry AC 1" 	0
scalar scenarioPRJP1.node[95].wlan.mac 	"sentWithoutRetry AC 2" 	0
scalar scenarioPRJP1.node[95].wlan.mac 	"sentWithoutRetry AC 3" 	0
scalar scenarioPRJP1.node[95].wlan.mac 	"numGivenUp AC 0" 	1800
scalar scenarioPRJP1.node[95].wlan.mac 	"numGivenUp AC 1" 	0
scalar scenarioPRJP1.node[95].wlan.mac 	"numGivenUp AC 2" 	0
scalar scenarioPRJP1.node[95].wlan.mac 	"numGivenUp AC 3" 	0
scalar scenarioPRJP1.node[95].wlan.mac 	"numDropped AC 0" 	20
scalar scenarioPRJP1.node[95].wlan.mac 	"numDropped AC 1" 	0
scalar scenarioPRJP1.node[95].wlan.mac 	"numDropped AC 2" 	0
scalar scenarioPRJP1.node[95].wlan.mac 	"numDropped AC 3" 	0
scalar scenarioPRJP1.node[95].wlan.mac 	rcvdPkFromLL:count 	193993
attr interpolationmode  none
attr source  packetReceivedFromLower
attr title  "packets received from lower layer, count"
scalar scenarioPRJP1.node[95].wlan.mac 	rcvdPkFromLL:sum(packetBytes) 	59460490
attr interpolationmode  none
attr source  packetReceivedFromLower
attr title  "packets received from lower layer, sum(packetBytes)"
scalar scenarioPRJP1.node[95].wlan.mac 	sentDownPk:count 	34569
attr interpolationmode  none
attr source  packetSentToLower
attr title  "packets sent to lower layer, count"
scalar scenarioPRJP1.node[95].wlan.mac 	sentDownPk:sum(packetBytes) 	10251861
attr interpolationmode  none
attr source  packetSentToLower
attr title  "packets sent to lower layer, sum(packetBytes)"
scalar scenarioPRJP1.node[95].wlan.mac 	rcvdPkFromHL:count 	17883
attr interpolationmode  none
attr source  packetReceivedFromUpper
attr title  "packets received from higher layer, count"
scalar scenarioPRJP1.node[95].wlan.mac 	rcvdPkFromHL:sum(packetBytes) 	3740972
attr interpolationmode  none
attr source  packetReceivedFromUpper
attr title  "packets received from higher layer, sum(packetBytes)"
scalar scenarioPRJP1.node[95].wlan.mac 	passedUpPk:count 	60009
attr interpolationmode  none
attr source  packetSentToUpper
attr title  "packets passed to higher layer, count"
scalar scenarioPRJP1.node[95].wlan.mac 	passedUpPk:sum(packetBytes) 	9492617
attr interpolationmode  none
attr source  packetSentToUpper
attr title  "packets passed to higher layer, sum(packetBytes)"
statistic scenarioPRJP1.node[95].wlan.radio 	radioChannel:histogram
field count 1
field mean 3
field stddev -nan
field sum 3
field sqrsum 9
field min 3
field max 3
attr interpolationmode  sample-hold
attr source  radioChannelChanged
attr title  "Radio channel, histogram"
bin	-INF	0
bin	2	0
bin	3	1
bin	4	0
scalar scenarioPRJP1.node[95].wlan.radio 	transmissionState:count 	138276
attr interpolationmode  sample-hold
attr source  transmissionStateChanged
attr title  "Radio transmission state, count"
scalar scenarioPRJP1.node[95].wlan.radio 	receptionState:count 	471195
attr interpolationmode  sample-hold
attr source  receptionStateChanged
attr title  "Radio reception state, count"
scalar scenarioPRJP1.node[95].wlan.radio 	radioMode:count 	69140
attr interpolationmode  sample-hold
attr source  radioModeChanged
attr title  "Radio mode, count"
statistic scenarioPRJP1.node[95].wlan.radio 	symbolErrorRate:histogram
field count 0
field mean -nan
field stddev -nan
field sum 0
field sqrsum 0
field min -nan
field max -nan
attr source  symbolErrorRate
attr title  "Symbol error rate, histogram"
bin	-INF	0
bin	-0.5	0
bin	-0.46666666666667	0
bin	-0.43333333333333	0
bin	-0.4	0
bin	-0.36666666666667	0
bin	-0.33333333333333	0
bin	-0.3	0
bin	-0.26666666666667	0
bin	-0.23333333333333	0
bin	-0.2	0
bin	-0.16666666666667	0
bin	-0.13333333333333	0
bin	-0.1	0
bin	-0.066666666666667	0
bin	-0.033333333333333	0
bin	0	0
bin	0.033333333333333	0
bin	0.066666666666667	0
bin	0.1	0
bin	0.13333333333333	0
bin	0.16666666666667	0
bin	0.2	0
bin	0.23333333333333	0
bin	0.26666666666667	0
bin	0.3	0
bin	0.33333333333333	0
bin	0.36666666666667	0
bin	0.4	0
bin	0.43333333333333	0
bin	0.46666666666667	0
bin	0.5	0
statistic scenarioPRJP1.node[95].wlan.radio 	bitErrorRate:histogram
field count 0
field mean -nan
field stddev -nan
field sum 0
field sqrsum 0
field min -nan
field max -nan
attr source  bitErrorRate
attr title  "Bit error rate, histogram"
bin	-INF	0
bin	-0.5	0
bin	-0.46666666666667	0
bin	-0.43333333333333	0
bin	-0.4	0
bin	-0.36666666666667	0
bin	-0.33333333333333	0
bin	-0.3	0
bin	-0.26666666666667	0
bin	-0.23333333333333	0
bin	-0.2	0
bin	-0.16666666666667	0
bin	-0.13333333333333	0
bin	-0.1	0
bin	-0.066666666666667	0
bin	-0.033333333333333	0
bin	0	0
bin	0.033333333333333	0
bin	0.066666666666667	0
bin	0.1	0
bin	0.13333333333333	0
bin	0.16666666666667	0
bin	0.2	0
bin	0.23333333333333	0
bin	0.26666666666667	0
bin	0.3	0
bin	0.33333333333333	0
bin	0.36666666666667	0
bin	0.4	0
bin	0.43333333333333	0
bin	0.46666666666667	0
bin	0.5	0
statistic scenarioPRJP1.node[95].wlan.radio 	packetErrorRate:histogram
field count 193993
field mean 0.24049299478225
field stddev 0.41725075443679
field sum 46653.957536793
field sqrsum 44993.606444076
field min 0
field max 1
attr source  packetErrorRate
attr title  "Packet error rate, histogram"
bin	-INF	0
bin	-0.5	0
bin	-0.43333333333333	0
bin	-0.36666666666667	0
bin	-0.3	0
bin	-0.23333333333333	0
bin	-0.16666666666667	0
bin	-0.1	0
bin	-0.033333333333333	140504
bin	0.033333333333333	2785
bin	0.1	1333
bin	0.16666666666667	915
bin	0.23333333333333	714
bin	0.3	618
bin	0.36666666666667	545
bin	0.43333333333333	481
bin	0.5	447
bin	0.56666666666667	430
bin	0.63333333333333	423
bin	0.7	436
bin	0.76666666666667	479
bin	0.83333333333333	580
bin	0.9	866
bin	0.96666666666667	42437
bin	1.0333333333333	0
bin	1.1	0
bin	1.1666666666667	0
bin	1.2333333333333	0
bin	1.3	0
bin	1.3666666666667	0
bin	1.4333333333333	0
bin	1.5	0
statistic scenarioPRJP1.node[95].wlan.radio 	minSNIR:histogram
field count 193993
field mean 1813.5443520633
field stddev 24685.496185763
field sum 351814909.48982
field sqrsum 1.1885165900814e+14
field min 0.00017031569346795
field max 753239.71923443
attr source  minSNIR
attr title  "Min SNIR, histogram"
bin	-INF	0
bin	-14504.981489269	0
bin	-12570.96775059	0
bin	-10636.95401191	0
bin	-8702.940273231	0
bin	-6768.9265345518	0
bin	-4834.9127958725	0
bin	-2900.8990571933	0
bin	-966.88531851402	178843
bin	967.12842016523	7492
bin	2901.1421588445	2040
bin	4835.1558975237	1068
bin	6769.169636203	654
bin	8703.1833748823	365
bin	10637.197113562	429
bin	12571.210852241	361
bin	14505.22459092	190
bin	16439.238329599	134
bin	18373.252068279	174
bin	20307.265806958	284
bin	22241.279545637	74
bin	24175.293284316	141
bin	26109.307022996	54
bin	28043.320761675	54
bin	29977.334500354	48
bin	31911.348239033	70
bin	33845.361977713	30
bin	35779.375716392	26
bin	37713.389455071	31
bin	39647.40319375	31
bin	41581.41693243	93
bin	43515.430671109	1307
scalar scenarioPRJP1.node[95].lo0.lo 	droppedPkBitError:count 	0
attr interpolationmode  none
attr source  dropPkBitError
attr title  "packets dropped/bit error, count"
scalar scenarioPRJP1.node[95].lo0.lo 	droppedPkBitError:sum(packetBytes) 	0
attr interpolationmode  none
attr source  dropPkBitError
attr title  "packets dropped/bit error, sum(packetBytes)"
scalar scenarioPRJP1.node[95].lo0.lo 	rcvdPkFromHL:count 	0
attr interpolationmode  none
attr source  packetReceivedFromUpper
attr title  "packets received from higher layer, count"
scalar scenarioPRJP1.node[95].lo0.lo 	rcvdPkFromHL:sum(packetBytes) 	0
attr interpolationmode  none
attr source  packetReceivedFromUpper
attr title  "packets received from higher layer, sum(packetBytes)"
scalar scenarioPRJP1.node[95].lo0.lo 	passedUpPk:count 	0
attr interpolationmode  none
attr source  packetSentToUpper
attr title  "packets passed to higher layer, count"
scalar scenarioPRJP1.node[95].lo0.lo 	passedUpPk:sum(packetBytes) 	0
attr interpolationmode  none
attr source  packetSentToUpper
attr title  "packets passed to higher layer, sum(packetBytes)"
