version 2
run DSRUU-FS-25n-8-20150722-04:21:22-24702
attr configname DSRUU-FS-25n
attr datetime 20150722-04:21:22
attr experiment DSRUU-FS-25n
attr inifile omnetpp.ini
attr iterationvars ""
attr iterationvars2 $repetition=8
attr measurement ""
attr network Prj_Part1_propag.scenarioPRJP1
attr processid 24702
attr repetition 8
attr replication #8
attr resultdir results
attr runnumber 8
attr seedset 8

scalar scenarioPRJP1.radioMedium.propagation 	"Arrival computation count" 	16717152
scalar scenarioPRJP1.radioMedium 	"transmission count" 	696548
scalar scenarioPRJP1.radioMedium 	"radio frame send count" 	16717152
scalar scenarioPRJP1.radioMedium 	"reception computation count" 	16593684
scalar scenarioPRJP1.radioMedium 	"interference computation count" 	48293873
scalar scenarioPRJP1.radioMedium 	"reception decision computation count" 	1777884
scalar scenarioPRJP1.radioMedium 	"listening decision computation count" 	30145092
scalar scenarioPRJP1.radioMedium 	"reception cache hit" 	77.569139132882
attr unit  %
scalar scenarioPRJP1.radioMedium 	"interference cache hit" 	50
attr unit  %
scalar scenarioPRJP1.radioMedium 	"noise cache hit" 	0
attr unit  %
scalar scenarioPRJP1.radioMedium 	"snir cache hit" 	0
attr unit  %
scalar scenarioPRJP1.radioMedium 	"reception decision cache hit" 	0
attr unit  %
scalar scenarioPRJP1.node[0].app 	"Total sent" 	2611
scalar scenarioPRJP1.node[0].app 	"Total received" 	298
scalar scenarioPRJP1.node[0].app 	"Total deleted" 	67
scalar scenarioPRJP1.node[0].app 	dropPk:count 	67
attr interpolationmode  none
attr source  dropPk
attr title  "packets dropped, count"
scalar scenarioPRJP1.node[0].app 	dropPk:sum(packetBytes) 	34304
attr interpolationmode  none
attr source  dropPk
attr title  "packets dropped, sum(packetBytes)"
scalar scenarioPRJP1.node[0].app 	outOfOrderPk:count 	11
attr interpolationmode  none
attr source  outOfOrderPk
attr title  "packets received out of order, count"
scalar scenarioPRJP1.node[0].app 	outOfOrderPk:sum(packetBytes) 	5632
attr interpolationmode  none
attr source  outOfOrderPk
attr title  "packets received out of order, sum(packetBytes)"
scalar scenarioPRJP1.node[0].app 	rcvdPk:count 	298
attr interpolationmode  none
attr source  rcvdPk
attr title  "packets received, count"
scalar scenarioPRJP1.node[0].app 	rcvdPk:sum(packetBytes) 	152576
attr interpolationmode  none
attr source  rcvdPk
attr title  "packets received, sum(packetBytes)"
statistic scenarioPRJP1.node[0].app 	endToEndDelay:histogram
field count 298
field mean 4.8209802611598
field stddev 5.7848918740337
field sum 1436.6521178256
field sqrsum 16865.168778486
field min 0.000956555909
field max 19.915964120357
attr interpolationmode  none
attr source  messageAge(rcvdPk)
attr title  "delay, histogram"
attr unit  s
bin	-INF	0
bin	-9.824456915021	0
bin	-8.5144007760458	0
bin	-7.2043446370706	0
bin	-5.8942884980954	0
bin	-4.5842323591202	0
bin	-3.274176220145	0
bin	-1.9641200811698	0
bin	-0.6540639421946	128
bin	0.6559921967806	15
bin	1.9660483357558	17
bin	3.276104474731	19
bin	4.5861606137062	17
bin	5.8962167526814	15
bin	7.2062728916566	19
bin	8.5163290306318	8
bin	9.826385169607	6
bin	11.136441308582	7
bin	12.446497447557	13
bin	13.756553586533	9
bin	15.066609725508	7
bin	16.376665864483	9
bin	17.686722003458	4
bin	18.996778142433	5
bin	20.306834281409	0
bin	21.616890420384	0
bin	22.926946559359	0
bin	24.237002698334	0
bin	25.547058837309	0
bin	26.857114976285	0
bin	28.16717111526	0
bin	29.477227254235	0
scalar scenarioPRJP1.node[0].app 	sentPk:count 	2611
attr interpolationmode  none
attr source  sentPk
attr title  "packets sent, count"
scalar scenarioPRJP1.node[0].app 	sentPk:sum(packetBytes) 	1336832
attr interpolationmode  none
attr source  sentPk
attr title  "packets sent, sum(packetBytes)"
scalar scenarioPRJP1.node[0].udp 	droppedPkBadChecksum:count 	0
attr interpolationmode  none
attr title  "packets dropped (checksum error), count"
scalar scenarioPRJP1.node[0].udp 	droppedPkWrongPort:count 	0
attr interpolationmode  none
attr title  "packets dropped (wrong port), count"
scalar scenarioPRJP1.node[0].udp 	passedUpPk:count 	376
attr interpolationmode  none
attr title  "packets passed up, count"
scalar scenarioPRJP1.node[0].udp 	rcvdPk:count 	376
attr interpolationmode  none
attr source  rcvdPk
attr title  "packets received, count"
scalar scenarioPRJP1.node[0].udp 	rcvdPk:sum(packetBytes) 	195520
attr interpolationmode  none
attr source  rcvdPk
attr title  "packets received, sum(packetBytes)"
scalar scenarioPRJP1.node[0].udp 	sentPk:count 	2611
attr interpolationmode  none
attr source  sentPk
attr title  "packets sent, count"
scalar scenarioPRJP1.node[0].udp 	sentPk:sum(packetBytes) 	1357720
attr interpolationmode  none
attr source  sentPk
attr title  "packets sent, sum(packetBytes)"
scalar scenarioPRJP1.node[0].networkLayer.arp 	failedARPResolution:count 	0
attr title  "ARP failed resolutions, count"
scalar scenarioPRJP1.node[0].networkLayer.arp 	completedARPResolution:count 	57
attr title  "ARP completed resolutions, count"
scalar scenarioPRJP1.node[0].networkLayer.arp 	initiatedARPResolution:count 	19
attr title  "ARP initiated resolutions, count"
scalar scenarioPRJP1.node[0].networkLayer.arp 	sentReply:count 	16
attr title  "ARP replies sent, count"
scalar scenarioPRJP1.node[0].networkLayer.arp 	sentReq:count 	19
attr title  "ARP request sent, count"
scalar scenarioPRJP1.node[0].mobility 	startTime 	0.1
scalar scenarioPRJP1.node[0].mobility 	totalTime 	949.9
scalar scenarioPRJP1.node[0].mobility 	stopTime 	950
scalar scenarioPRJP1.node[0].mobility 	minSpeed 	2.4754375214377e-13
scalar scenarioPRJP1.node[0].mobility 	maxSpeed 	21.671992847103
scalar scenarioPRJP1.node[0].mobility 	totalDistance 	10738.998414107
scalar scenarioPRJP1.node[0].mobility 	totalCO2Emission 	2953.4693999102
scalar scenarioPRJP1.node[0].wlan.mgmt 	dataQueueLen:max 	52
attr interpolationmode  sample-hold
attr title  "data queue length, max"
scalar scenarioPRJP1.node[0].wlan.mgmt 	dataQueueLen:timeavg 	0.043928771109343
attr interpolationmode  sample-hold
attr title  "data queue length, timeavg"
scalar scenarioPRJP1.node[0].wlan.mgmt 	dropPkByQueue:count 	0
attr interpolationmode  none
attr source  dropPkByQueue
attr title  "packets dropped by queue, count"
scalar scenarioPRJP1.node[0].wlan.mgmt 	dropPkByQueue:sum(packetBytes) 	0
attr interpolationmode  none
attr source  dropPkByQueue
attr title  "packets dropped by queue, sum(packetBytes)"
scalar scenarioPRJP1.node[0].wlan.mac 	"number of received packets" 	5030
scalar scenarioPRJP1.node[0].wlan.mac 	"number of collisions" 	4784
scalar scenarioPRJP1.node[0].wlan.mac 	"number of internal collisions" 	0
scalar scenarioPRJP1.node[0].wlan.mac 	"number of retry for AC 0" 	7473
scalar scenarioPRJP1.node[0].wlan.mac 	"number of retry for AC 1" 	0
scalar scenarioPRJP1.node[0].wlan.mac 	"number of retry for AC 2" 	0
scalar scenarioPRJP1.node[0].wlan.mac 	"number of retry for AC 3" 	0
scalar scenarioPRJP1.node[0].wlan.mac 	"sent and received bits" 	5645408
scalar scenarioPRJP1.node[0].wlan.mac 	"sent packet within AC 0" 	872
scalar scenarioPRJP1.node[0].wlan.mac 	"sent packet within AC 1" 	0
scalar scenarioPRJP1.node[0].wlan.mac 	"sent packet within AC 2" 	0
scalar scenarioPRJP1.node[0].wlan.mac 	"sent packet within AC 3" 	0
scalar scenarioPRJP1.node[0].wlan.mac 	"sent in TXOP " 	0
scalar scenarioPRJP1.node[0].wlan.mac 	"sentWithoutRetry AC 0" 	802
scalar scenarioPRJP1.node[0].wlan.mac 	"sentWithoutRetry AC 1" 	0
scalar scenarioPRJP1.node[0].wlan.mac 	"sentWithoutRetry AC 2" 	0
scalar scenarioPRJP1.node[0].wlan.mac 	"sentWithoutRetry AC 3" 	0
scalar scenarioPRJP1.node[0].wlan.mac 	"numGivenUp AC 0" 	1223
scalar scenarioPRJP1.node[0].wlan.mac 	"numGivenUp AC 1" 	0
scalar scenarioPRJP1.node[0].wlan.mac 	"numGivenUp AC 2" 	0
scalar scenarioPRJP1.node[0].wlan.mac 	"numGivenUp AC 3" 	0
scalar scenarioPRJP1.node[0].wlan.mac 	"numDropped AC 0" 	73
scalar scenarioPRJP1.node[0].wlan.mac 	"numDropped AC 1" 	0
scalar scenarioPRJP1.node[0].wlan.mac 	"numDropped AC 2" 	0
scalar scenarioPRJP1.node[0].wlan.mac 	"numDropped AC 3" 	0
scalar scenarioPRJP1.node[0].wlan.mac 	rcvdPkFromLL:count 	54848
attr interpolationmode  none
attr source  packetReceivedFromLower
attr title  "packets received from lower layer, count"
scalar scenarioPRJP1.node[0].wlan.mac 	rcvdPkFromLL:sum(packetBytes) 	12242430
attr interpolationmode  none
attr source  packetReceivedFromLower
attr title  "packets received from lower layer, sum(packetBytes)"
scalar scenarioPRJP1.node[0].wlan.mac 	sentDownPk:count 	20349
attr interpolationmode  none
attr source  packetSentToLower
attr title  "packets sent to lower layer, count"
scalar scenarioPRJP1.node[0].wlan.mac 	sentDownPk:sum(packetBytes) 	4203456
attr interpolationmode  none
attr source  packetSentToLower
attr title  "packets sent to lower layer, sum(packetBytes)"
scalar scenarioPRJP1.node[0].wlan.mac 	rcvdPkFromHL:count 	7919
attr interpolationmode  none
attr source  packetReceivedFromUpper
attr title  "packets received from higher layer, count"
scalar scenarioPRJP1.node[0].wlan.mac 	rcvdPkFromHL:sum(packetBytes) 	1214852
attr interpolationmode  none
attr source  packetReceivedFromUpper
attr title  "packets received from higher layer, sum(packetBytes)"
scalar scenarioPRJP1.node[0].wlan.mac 	passedUpPk:count 	10885
attr interpolationmode  none
attr source  packetSentToUpper
attr title  "packets passed to higher layer, count"
scalar scenarioPRJP1.node[0].wlan.mac 	passedUpPk:sum(packetBytes) 	1243948
attr interpolationmode  none
attr source  packetSentToUpper
attr title  "packets passed to higher layer, sum(packetBytes)"
statistic scenarioPRJP1.node[0].wlan.radio 	radioChannel:histogram
field count 1
field mean 3
field stddev -nan
field sum 3
field sqrsum 9
field min 3
field max 3
attr interpolationmode  sample-hold
attr source  radioChannelChanged
attr title  "Radio channel, histogram"
bin	-INF	0
bin	2	0
bin	3	1
bin	4	0
scalar scenarioPRJP1.node[0].wlan.radio 	transmissionState:count 	81396
attr interpolationmode  sample-hold
attr source  transmissionStateChanged
attr title  "Radio transmission state, count"
scalar scenarioPRJP1.node[0].wlan.radio 	receptionState:count 	150843
attr interpolationmode  sample-hold
attr source  receptionStateChanged
attr title  "Radio reception state, count"
scalar scenarioPRJP1.node[0].wlan.radio 	radioMode:count 	40700
attr interpolationmode  sample-hold
attr source  radioModeChanged
attr title  "Radio mode, count"
statistic scenarioPRJP1.node[0].wlan.radio 	symbolErrorRate:histogram
field count 0
field mean -nan
field stddev -nan
field sum 0
field sqrsum 0
field min -nan
field max -nan
attr source  symbolErrorRate
attr title  "Symbol error rate, histogram"
bin	-INF	0
bin	-0.5	0
bin	-0.46666666666667	0
bin	-0.43333333333333	0
bin	-0.4	0
bin	-0.36666666666667	0
bin	-0.33333333333333	0
bin	-0.3	0
bin	-0.26666666666667	0
bin	-0.23333333333333	0
bin	-0.2	0
bin	-0.16666666666667	0
bin	-0.13333333333333	0
bin	-0.1	0
bin	-0.066666666666667	0
bin	-0.033333333333333	0
bin	0	0
bin	0.033333333333333	0
bin	0.066666666666667	0
bin	0.1	0
bin	0.13333333333333	0
bin	0.16666666666667	0
bin	0.2	0
bin	0.23333333333333	0
bin	0.26666666666667	0
bin	0.3	0
bin	0.33333333333333	0
bin	0.36666666666667	0
bin	0.4	0
bin	0.43333333333333	0
bin	0.46666666666667	0
bin	0.5	0
statistic scenarioPRJP1.node[0].wlan.radio 	bitErrorRate:histogram
field count 0
field mean -nan
field stddev -nan
field sum 0
field sqrsum 0
field min -nan
field max -nan
attr source  bitErrorRate
attr title  "Bit error rate, histogram"
bin	-INF	0
bin	-0.5	0
bin	-0.46666666666667	0
bin	-0.43333333333333	0
bin	-0.4	0
bin	-0.36666666666667	0
bin	-0.33333333333333	0
bin	-0.3	0
bin	-0.26666666666667	0
bin	-0.23333333333333	0
bin	-0.2	0
bin	-0.16666666666667	0
bin	-0.13333333333333	0
bin	-0.1	0
bin	-0.066666666666667	0
bin	-0.033333333333333	0
bin	0	0
bin	0.033333333333333	0
bin	0.066666666666667	0
bin	0.1	0
bin	0.13333333333333	0
bin	0.16666666666667	0
bin	0.2	0
bin	0.23333333333333	0
bin	0.26666666666667	0
bin	0.3	0
bin	0.33333333333333	0
bin	0.36666666666667	0
bin	0.4	0
bin	0.43333333333333	0
bin	0.46666666666667	0
bin	0.5	0
statistic scenarioPRJP1.node[0].wlan.radio 	packetErrorRate:histogram
field count 54848
field mean 0.082713342609486
field stddev 0.26688413296338
field sum 4536.6614154451
field sqrsum 4281.8374009923
field min 0
field max 1
attr source  packetErrorRate
attr title  "Packet error rate, histogram"
bin	-INF	0
bin	-0.5	0
bin	-0.43333333333333	0
bin	-0.36666666666667	0
bin	-0.3	0
bin	-0.23333333333333	0
bin	-0.16666666666667	0
bin	-0.1	0
bin	-0.033333333333333	49300
bin	0.033333333333333	416
bin	0.1	181
bin	0.16666666666667	111
bin	0.23333333333333	117
bin	0.3	105
bin	0.36666666666667	85
bin	0.43333333333333	86
bin	0.5	74
bin	0.56666666666667	75
bin	0.63333333333333	67
bin	0.7	58
bin	0.76666666666667	72
bin	0.83333333333333	81
bin	0.9	91
bin	0.96666666666667	3929
bin	1.0333333333333	0
bin	1.1	0
bin	1.1666666666667	0
bin	1.2333333333333	0
bin	1.3	0
bin	1.3666666666667	0
bin	1.4333333333333	0
bin	1.5	0
statistic scenarioPRJP1.node[0].wlan.radio 	minSNIR:histogram
field count 54848
field mean 9597.1067971747
field stddev 57096.274380285
field sum 526382113.61144
field sqrsum 1.8385211787058e+14
field min 0.00017117664982956
field max 753239.71923443
attr source  minSNIR
attr title  "Min SNIR, histogram"
bin	-INF	0
bin	-98.829358901377	0
bin	-85.294528391305	0
bin	-71.759697881233	0
bin	-58.224867371161	0
bin	-44.690036861089	0
bin	-31.155206351018	0
bin	-17.620375840946	0
bin	-4.085545330874	11278
bin	9.4492851791978	4131
bin	22.98411568927	1201
bin	36.518946199341	545
bin	50.053776709413	290
bin	63.588607219485	213
bin	77.123437729557	170
bin	90.658268239629	124
bin	104.1930987497	125
bin	117.72792925977	1576
bin	131.26275976984	3662
bin	144.79759027992	2498
bin	158.33242078999	2009
bin	171.86725130006	1490
bin	185.40208181013	1231
bin	198.9369123202	1045
bin	212.47174283027	982
bin	226.00657334035	949
bin	239.54140385042	923
bin	253.07623436049	620
bin	266.61106487056	594
bin	280.14589538063	565
bin	293.68072589071	520
bin	307.21555640078	18107
scalar scenarioPRJP1.node[0].lo0.lo 	droppedPkBitError:count 	0
attr interpolationmode  none
attr source  dropPkBitError
attr title  "packets dropped/bit error, count"
scalar scenarioPRJP1.node[0].lo0.lo 	droppedPkBitError:sum(packetBytes) 	0
attr interpolationmode  none
attr source  dropPkBitError
attr title  "packets dropped/bit error, sum(packetBytes)"
scalar scenarioPRJP1.node[0].lo0.lo 	rcvdPkFromHL:count 	376
attr interpolationmode  none
attr source  packetReceivedFromUpper
attr title  "packets received from higher layer, count"
scalar scenarioPRJP1.node[0].lo0.lo 	rcvdPkFromHL:sum(packetBytes) 	195520
attr interpolationmode  none
attr source  packetReceivedFromUpper
attr title  "packets received from higher layer, sum(packetBytes)"
scalar scenarioPRJP1.node[0].lo0.lo 	passedUpPk:count 	376
attr interpolationmode  none
attr source  packetSentToUpper
attr title  "packets passed to higher layer, count"
scalar scenarioPRJP1.node[0].lo0.lo 	passedUpPk:sum(packetBytes) 	195520
attr interpolationmode  none
attr source  packetSentToUpper
attr title  "packets passed to higher layer, sum(packetBytes)"
scalar scenarioPRJP1.node[13].app 	"Total sent" 	2615
scalar scenarioPRJP1.node[13].app 	"Total received" 	379
scalar scenarioPRJP1.node[13].app 	"Total deleted" 	78
scalar scenarioPRJP1.node[13].app 	dropPk:count 	78
attr interpolationmode  none
attr source  dropPk
attr title  "packets dropped, count"
scalar scenarioPRJP1.node[13].app 	dropPk:sum(packetBytes) 	39936
attr interpolationmode  none
attr source  dropPk
attr title  "packets dropped, sum(packetBytes)"
scalar scenarioPRJP1.node[13].app 	outOfOrderPk:count 	42
attr interpolationmode  none
attr source  outOfOrderPk
attr title  "packets received out of order, count"
scalar scenarioPRJP1.node[13].app 	outOfOrderPk:sum(packetBytes) 	21504
attr interpolationmode  none
attr source  outOfOrderPk
attr title  "packets received out of order, sum(packetBytes)"
scalar scenarioPRJP1.node[13].app 	rcvdPk:count 	379
attr interpolationmode  none
attr source  rcvdPk
attr title  "packets received, count"
scalar scenarioPRJP1.node[13].app 	rcvdPk:sum(packetBytes) 	194048
attr interpolationmode  none
attr source  rcvdPk
attr title  "packets received, sum(packetBytes)"
statistic scenarioPRJP1.node[13].app 	endToEndDelay:histogram
field count 379
field mean 5.0652253911992
field stddev 5.8819495010912
field sum 1919.7204232645
field sqrsum 22801.607346743
field min 0.000956568556
field max 19.803946090273
attr interpolationmode  none
attr source  messageAge(rcvdPk)
attr title  "delay, histogram"
attr unit  s
bin	-INF	0
bin	-9.508013421687	0
bin	-8.2401507212266	0
bin	-6.9722880207662	0
bin	-5.7044253203058	0
bin	-4.4365626198454	0
bin	-3.168699919385	0
bin	-1.9008372189246	0
bin	-0.6329745184642	152
bin	0.6348881819962	22
bin	1.9027508824566	27
bin	3.170613582917	18
bin	4.4384762833774	24
bin	5.7063389838378	19
bin	6.9742016842982	11
bin	8.2420643847586	16
bin	9.509927085219	13
bin	10.777789785679	9
bin	12.04565248614	15
bin	13.3135151866	12
bin	14.581377887061	10
bin	15.849240587521	10
bin	17.117103287981	14
bin	18.384965988442	5
bin	19.652828688902	2
bin	20.920691389363	0
bin	22.188554089823	0
bin	23.456416790283	0
bin	24.724279490744	0
bin	25.992142191204	0
bin	27.260004891665	0
bin	28.527867592125	0
scalar scenarioPRJP1.node[13].app 	sentPk:count 	2615
attr interpolationmode  none
attr source  sentPk
attr title  "packets sent, count"
scalar scenarioPRJP1.node[13].app 	sentPk:sum(packetBytes) 	1338880
attr interpolationmode  none
attr source  sentPk
attr title  "packets sent, sum(packetBytes)"
scalar scenarioPRJP1.node[13].udp 	droppedPkBadChecksum:count 	0
attr interpolationmode  none
attr title  "packets dropped (checksum error), count"
scalar scenarioPRJP1.node[13].udp 	droppedPkWrongPort:count 	0
attr interpolationmode  none
attr title  "packets dropped (wrong port), count"
scalar scenarioPRJP1.node[13].udp 	passedUpPk:count 	499
attr interpolationmode  none
attr title  "packets passed up, count"
scalar scenarioPRJP1.node[13].udp 	rcvdPk:count 	499
attr interpolationmode  none
attr source  rcvdPk
attr title  "packets received, count"
scalar scenarioPRJP1.node[13].udp 	rcvdPk:sum(packetBytes) 	259480
attr interpolationmode  none
attr source  rcvdPk
attr title  "packets received, sum(packetBytes)"
scalar scenarioPRJP1.node[13].udp 	sentPk:count 	2615
attr interpolationmode  none
attr source  sentPk
attr title  "packets sent, count"
scalar scenarioPRJP1.node[13].udp 	sentPk:sum(packetBytes) 	1359800
attr interpolationmode  none
attr source  sentPk
attr title  "packets sent, sum(packetBytes)"
scalar scenarioPRJP1.node[13].networkLayer.arp 	failedARPResolution:count 	0
attr title  "ARP failed resolutions, count"
scalar scenarioPRJP1.node[13].networkLayer.arp 	completedARPResolution:count 	59
attr title  "ARP completed resolutions, count"
scalar scenarioPRJP1.node[13].networkLayer.arp 	initiatedARPResolution:count 	26
attr title  "ARP initiated resolutions, count"
scalar scenarioPRJP1.node[13].networkLayer.arp 	sentReply:count 	23
attr title  "ARP replies sent, count"
scalar scenarioPRJP1.node[13].networkLayer.arp 	sentReq:count 	30
attr title  "ARP request sent, count"
scalar scenarioPRJP1.node[13].mobility 	startTime 	2.5
scalar scenarioPRJP1.node[13].mobility 	totalTime 	947.5
scalar scenarioPRJP1.node[13].mobility 	stopTime 	950
scalar scenarioPRJP1.node[13].mobility 	minSpeed 	2.4754562491466e-13
scalar scenarioPRJP1.node[13].mobility 	maxSpeed 	19.245746319739
scalar scenarioPRJP1.node[13].mobility 	totalDistance 	10331.899090563
scalar scenarioPRJP1.node[13].mobility 	totalCO2Emission 	2820.4653268491
scalar scenarioPRJP1.node[13].wlan.mgmt 	dataQueueLen:max 	47
attr interpolationmode  sample-hold
attr title  "data queue length, max"
scalar scenarioPRJP1.node[13].wlan.mgmt 	dataQueueLen:timeavg 	0.0014921235984116
attr interpolationmode  sample-hold
attr title  "data queue length, timeavg"
scalar scenarioPRJP1.node[13].wlan.mgmt 	dropPkByQueue:count 	0
attr interpolationmode  none
attr source  dropPkByQueue
attr title  "packets dropped by queue, count"
scalar scenarioPRJP1.node[13].wlan.mgmt 	dropPkByQueue:sum(packetBytes) 	0
attr interpolationmode  none
attr source  dropPkByQueue
attr title  "packets dropped by queue, sum(packetBytes)"
scalar scenarioPRJP1.node[13].wlan.mac 	"number of received packets" 	8779
scalar scenarioPRJP1.node[13].wlan.mac 	"number of collisions" 	4798
scalar scenarioPRJP1.node[13].wlan.mac 	"number of internal collisions" 	0
scalar scenarioPRJP1.node[13].wlan.mac 	"number of retry for AC 0" 	11443
scalar scenarioPRJP1.node[13].wlan.mac 	"number of retry for AC 1" 	0
scalar scenarioPRJP1.node[13].wlan.mac 	"number of retry for AC 2" 	0
scalar scenarioPRJP1.node[13].wlan.mac 	"number of retry for AC 3" 	0
scalar scenarioPRJP1.node[13].wlan.mac 	"sent and received bits" 	5333216
scalar scenarioPRJP1.node[13].wlan.mac 	"sent packet within AC 0" 	673
scalar scenarioPRJP1.node[13].wlan.mac 	"sent packet within AC 1" 	0
scalar scenarioPRJP1.node[13].wlan.mac 	"sent packet within AC 2" 	0
scalar scenarioPRJP1.node[13].wlan.mac 	"sent packet within AC 3" 	0
scalar scenarioPRJP1.node[13].wlan.mac 	"sent in TXOP " 	0
scalar scenarioPRJP1.node[13].wlan.mac 	"sentWithoutRetry AC 0" 	613
scalar scenarioPRJP1.node[13].wlan.mac 	"sentWithoutRetry AC 1" 	0
scalar scenarioPRJP1.node[13].wlan.mac 	"sentWithoutRetry AC 2" 	0
scalar scenarioPRJP1.node[13].wlan.mac 	"sentWithoutRetry AC 3" 	0
scalar scenarioPRJP1.node[13].wlan.mac 	"numGivenUp AC 0" 	1885
scalar scenarioPRJP1.node[13].wlan.mac 	"numGivenUp AC 1" 	0
scalar scenarioPRJP1.node[13].wlan.mac 	"numGivenUp AC 2" 	0
scalar scenarioPRJP1.node[13].wlan.mac 	"numGivenUp AC 3" 	0
scalar scenarioPRJP1.node[13].wlan.mac 	"numDropped AC 0" 	36
scalar scenarioPRJP1.node[13].wlan.mac 	"numDropped AC 1" 	0
scalar scenarioPRJP1.node[13].wlan.mac 	"numDropped AC 2" 	0
scalar scenarioPRJP1.node[13].wlan.mac 	"numDropped AC 3" 	0
scalar scenarioPRJP1.node[13].wlan.mac 	rcvdPkFromLL:count 	54576
attr interpolationmode  none
attr source  packetReceivedFromLower
attr title  "packets received from lower layer, count"
scalar scenarioPRJP1.node[13].wlan.mac 	rcvdPkFromLL:sum(packetBytes) 	12279122
attr interpolationmode  none
attr source  packetReceivedFromLower
attr title  "packets received from lower layer, sum(packetBytes)"
scalar scenarioPRJP1.node[13].wlan.mac 	sentDownPk:count 	29067
attr interpolationmode  none
attr source  packetSentToLower
attr title  "packets sent to lower layer, count"
scalar scenarioPRJP1.node[13].wlan.mac 	sentDownPk:sum(packetBytes) 	6281354
attr interpolationmode  none
attr source  packetSentToLower
attr title  "packets sent to lower layer, sum(packetBytes)"
scalar scenarioPRJP1.node[13].wlan.mac 	rcvdPkFromHL:count 	8881
attr interpolationmode  none
attr source  packetReceivedFromUpper
attr title  "packets received from higher layer, count"
scalar scenarioPRJP1.node[13].wlan.mac 	rcvdPkFromHL:sum(packetBytes) 	1454768
attr interpolationmode  none
attr source  packetReceivedFromUpper
attr title  "packets received from higher layer, sum(packetBytes)"
scalar scenarioPRJP1.node[13].wlan.mac 	passedUpPk:count 	11078
attr interpolationmode  none
attr source  packetSentToUpper
attr title  "packets passed to higher layer, count"
scalar scenarioPRJP1.node[13].wlan.mac 	passedUpPk:sum(packetBytes) 	1427840
attr interpolationmode  none
attr source  packetSentToUpper
attr title  "packets passed to higher layer, sum(packetBytes)"
statistic scenarioPRJP1.node[13].wlan.radio 	radioChannel:histogram
field count 1
field mean 3
field stddev -nan
field sum 3
field sqrsum 9
field min 3
field max 3
attr interpolationmode  sample-hold
attr source  radioChannelChanged
attr title  "Radio channel, histogram"
bin	-INF	0
bin	2	0
bin	3	1
bin	4	0
scalar scenarioPRJP1.node[13].wlan.radio 	transmissionState:count 	116268
attr interpolationmode  sample-hold
attr source  transmissionStateChanged
attr title  "Radio transmission state, count"
scalar scenarioPRJP1.node[13].wlan.radio 	receptionState:count 	167521
attr interpolationmode  sample-hold
attr source  receptionStateChanged
attr title  "Radio reception state, count"
scalar scenarioPRJP1.node[13].wlan.radio 	radioMode:count 	58136
attr interpolationmode  sample-hold
attr source  radioModeChanged
attr title  "Radio mode, count"
statistic scenarioPRJP1.node[13].wlan.radio 	symbolErrorRate:histogram
field count 0
field mean -nan
field stddev -nan
field sum 0
field sqrsum 0
field min -nan
field max -nan
attr source  symbolErrorRate
attr title  "Symbol error rate, histogram"
bin	-INF	0
bin	-0.5	0
bin	-0.46666666666667	0
bin	-0.43333333333333	0
bin	-0.4	0
bin	-0.36666666666667	0
bin	-0.33333333333333	0
bin	-0.3	0
bin	-0.26666666666667	0
bin	-0.23333333333333	0
bin	-0.2	0
bin	-0.16666666666667	0
bin	-0.13333333333333	0
bin	-0.1	0
bin	-0.066666666666667	0
bin	-0.033333333333333	0
bin	0	0
bin	0.033333333333333	0
bin	0.066666666666667	0
bin	0.1	0
bin	0.13333333333333	0
bin	0.16666666666667	0
bin	0.2	0
bin	0.23333333333333	0
bin	0.26666666666667	0
bin	0.3	0
bin	0.33333333333333	0
bin	0.36666666666667	0
bin	0.4	0
bin	0.43333333333333	0
bin	0.46666666666667	0
bin	0.5	0
statistic scenarioPRJP1.node[13].wlan.radio 	bitErrorRate:histogram
field count 0
field mean -nan
field stddev -nan
field sum 0
field sqrsum 0
field min -nan
field max -nan
attr source  bitErrorRate
attr title  "Bit error rate, histogram"
bin	-INF	0
bin	-0.5	0
bin	-0.46666666666667	0
bin	-0.43333333333333	0
bin	-0.4	0
bin	-0.36666666666667	0
bin	-0.33333333333333	0
bin	-0.3	0
bin	-0.26666666666667	0
bin	-0.23333333333333	0
bin	-0.2	0
bin	-0.16666666666667	0
bin	-0.13333333333333	0
bin	-0.1	0
bin	-0.066666666666667	0
bin	-0.033333333333333	0
bin	0	0
bin	0.033333333333333	0
bin	0.066666666666667	0
bin	0.1	0
bin	0.13333333333333	0
bin	0.16666666666667	0
bin	0.2	0
bin	0.23333333333333	0
bin	0.26666666666667	0
bin	0.3	0
bin	0.33333333333333	0
bin	0.36666666666667	0
bin	0.4	0
bin	0.43333333333333	0
bin	0.46666666666667	0
bin	0.5	0
statistic scenarioPRJP1.node[13].wlan.radio 	packetErrorRate:histogram
field count 54576
field mean 0.082733944617951
field stddev 0.26548440501267
field sum 4515.2877614693
field sqrsum 4220.1210424082
field min 0
field max 1
attr source  packetErrorRate
attr title  "Packet error rate, histogram"
bin	-INF	0
bin	-0.49995332983385	0
bin	-0.43329288585601	0
bin	-0.36663244187816	0
bin	-0.29997199790031	0
bin	-0.23331155392247	0
bin	-0.16665110994462	0
bin	-0.099990665966771	0
bin	-0.033330221988924	48794
bin	0.033330221988924	520
bin	0.099990665966771	287
bin	0.16665110994462	167
bin	0.23331155392247	142
bin	0.29997199790031	102
bin	0.36663244187816	77
bin	0.43329288585601	92
bin	0.49995332983385	67
bin	0.5666137738117	89
bin	0.63327421778955	80
bin	0.6999346617674	58
bin	0.76659510574524	74
bin	0.83325554972309	75
bin	0.89991599370094	131
bin	0.96657643767879	3821
bin	1.0332368816566	0
bin	1.0998973256345	0
bin	1.1665577696123	0
bin	1.2332182135902	0
bin	1.299878657568	0
bin	1.3665391015459	0
bin	1.4331995455237	0
bin	1.4998599895016	0
statistic scenarioPRJP1.node[13].wlan.radio 	minSNIR:histogram
field count 54576
field mean 1109.9258401762
field stddev 9085.1836015193
field sum 60575312.653455
field sqrsum 4571885225367
field min 0.014011858503334
field max 443556.10218133
attr source  minSNIR
attr title  "Min SNIR, histogram"
bin	-INF	0
bin	-99.948162147358	0
bin	-86.363607048576	0
bin	-72.779051949794	0
bin	-59.194496851012	0
bin	-45.60994175223	0
bin	-32.025386653448	0
bin	-18.440831554665	0
bin	-4.8562764558834	12601
bin	8.7282786428987	8320
bin	22.312833741681	1941
bin	35.897388840463	742
bin	49.481943939245	403
bin	63.066499038027	334
bin	76.651054136809	204
bin	90.235609235591	141
bin	103.82016433437	141
bin	117.40471943316	1424
bin	130.98927453194	4604
bin	144.57382963072	2006
bin	158.1583847295	1966
bin	171.74293982828	1578
bin	185.32749492707	1506
bin	198.91205002585	1233
bin	212.49660512463	1019
bin	226.08116022341	736
bin	239.66571532219	698
bin	253.25027042098	658
bin	266.83482551976	535
bin	280.41938061854	592
bin	294.00393571732	649
bin	307.5884908161	10545
scalar scenarioPRJP1.node[13].lo0.lo 	droppedPkBitError:count 	0
attr interpolationmode  none
attr source  dropPkBitError
attr title  "packets dropped/bit error, count"
scalar scenarioPRJP1.node[13].lo0.lo 	droppedPkBitError:sum(packetBytes) 	0
attr interpolationmode  none
attr source  dropPkBitError
attr title  "packets dropped/bit error, sum(packetBytes)"
scalar scenarioPRJP1.node[13].lo0.lo 	rcvdPkFromHL:count 	499
attr interpolationmode  none
attr source  packetReceivedFromUpper
attr title  "packets received from higher layer, count"
scalar scenarioPRJP1.node[13].lo0.lo 	rcvdPkFromHL:sum(packetBytes) 	259480
attr interpolationmode  none
attr source  packetReceivedFromUpper
attr title  "packets received from higher layer, sum(packetBytes)"
scalar scenarioPRJP1.node[13].lo0.lo 	passedUpPk:count 	499
attr interpolationmode  none
attr source  packetSentToUpper
attr title  "packets passed to higher layer, count"
scalar scenarioPRJP1.node[13].lo0.lo 	passedUpPk:sum(packetBytes) 	259480
attr interpolationmode  none
attr source  packetSentToUpper
attr title  "packets passed to higher layer, sum(packetBytes)"
scalar scenarioPRJP1.node[1].app 	"Total sent" 	2590
scalar scenarioPRJP1.node[1].app 	"Total received" 	431
scalar scenarioPRJP1.node[1].app 	"Total deleted" 	73
scalar scenarioPRJP1.node[1].app 	dropPk:count 	73
attr interpolationmode  none
attr source  dropPk
attr title  "packets dropped, count"
scalar scenarioPRJP1.node[1].app 	dropPk:sum(packetBytes) 	37376
attr interpolationmode  none
attr source  dropPk
attr title  "packets dropped, sum(packetBytes)"
scalar scenarioPRJP1.node[1].app 	outOfOrderPk:count 	27
attr interpolationmode  none
attr source  outOfOrderPk
attr title  "packets received out of order, count"
scalar scenarioPRJP1.node[1].app 	outOfOrderPk:sum(packetBytes) 	13824
attr interpolationmode  none
attr source  outOfOrderPk
attr title  "packets received out of order, sum(packetBytes)"
scalar scenarioPRJP1.node[1].app 	rcvdPk:count 	431
attr interpolationmode  none
attr source  rcvdPk
attr title  "packets received, count"
scalar scenarioPRJP1.node[1].app 	rcvdPk:sum(packetBytes) 	220672
attr interpolationmode  none
attr source  rcvdPk
attr title  "packets received, sum(packetBytes)"
statistic scenarioPRJP1.node[1].app 	endToEndDelay:histogram
field count 431
field mean 4.0562088557876
field stddev 5.8837550824836
field sum 1748.2260168445
field sqrsum 21977.156615823
field min 0.000956372486
field max 19.554592855269
attr interpolationmode  none
attr source  messageAge(rcvdPk)
attr title  "delay, histogram"
attr unit  s
bin	-INF	0
bin	-9.4542938302505	0
bin	-8.1935927743278	0
bin	-6.932891718405	0
bin	-5.6721906624823	0
bin	-4.4114896065596	0
bin	-3.1507885506368	0
bin	-1.8900874947141	0
bin	-0.62938643879137	235
bin	0.63131461713137	33
bin	1.8920156730541	15
bin	3.1527167289768	10
bin	4.4134177848996	12
bin	5.6741188408223	13
bin	6.934819896745	14
bin	8.1955209526678	10
bin	9.4562220085905	10
bin	10.716923064513	9
bin	11.977624120436	12
bin	13.238325176359	15
bin	14.499026232281	14
bin	15.759727288204	10
bin	17.020428344127	8
bin	18.28112940005	10
bin	19.541830455972	1
bin	20.802531511895	0
bin	22.063232567818	0
bin	23.323933623741	0
bin	24.584634679663	0
bin	25.845335735586	0
bin	27.106036791509	0
bin	28.366737847432	0
scalar scenarioPRJP1.node[1].app 	sentPk:count 	2590
attr interpolationmode  none
attr source  sentPk
attr title  "packets sent, count"
scalar scenarioPRJP1.node[1].app 	sentPk:sum(packetBytes) 	1326080
attr interpolationmode  none
attr source  sentPk
attr title  "packets sent, sum(packetBytes)"
scalar scenarioPRJP1.node[1].udp 	droppedPkBadChecksum:count 	0
attr interpolationmode  none
attr title  "packets dropped (checksum error), count"
scalar scenarioPRJP1.node[1].udp 	droppedPkWrongPort:count 	0
attr interpolationmode  none
attr title  "packets dropped (wrong port), count"
scalar scenarioPRJP1.node[1].udp 	passedUpPk:count 	531
attr interpolationmode  none
attr title  "packets passed up, count"
scalar scenarioPRJP1.node[1].udp 	rcvdPk:count 	531
attr interpolationmode  none
attr source  rcvdPk
attr title  "packets received, count"
scalar scenarioPRJP1.node[1].udp 	rcvdPk:sum(packetBytes) 	276120
attr interpolationmode  none
attr source  rcvdPk
attr title  "packets received, sum(packetBytes)"
scalar scenarioPRJP1.node[1].udp 	sentPk:count 	2590
attr interpolationmode  none
attr source  sentPk
attr title  "packets sent, count"
scalar scenarioPRJP1.node[1].udp 	sentPk:sum(packetBytes) 	1346800
attr interpolationmode  none
attr source  sentPk
attr title  "packets sent, sum(packetBytes)"
scalar scenarioPRJP1.node[1].networkLayer.arp 	failedARPResolution:count 	4
attr title  "ARP failed resolutions, count"
scalar scenarioPRJP1.node[1].networkLayer.arp 	completedARPResolution:count 	92
attr title  "ARP completed resolutions, count"
scalar scenarioPRJP1.node[1].networkLayer.arp 	initiatedARPResolution:count 	33
attr title  "ARP initiated resolutions, count"
scalar scenarioPRJP1.node[1].networkLayer.arp 	sentReply:count 	16
attr title  "ARP replies sent, count"
scalar scenarioPRJP1.node[1].networkLayer.arp 	sentReq:count 	46
attr title  "ARP request sent, count"
scalar scenarioPRJP1.node[1].mobility 	startTime 	0.1
scalar scenarioPRJP1.node[1].mobility 	totalTime 	949.9
scalar scenarioPRJP1.node[1].mobility 	stopTime 	950
scalar scenarioPRJP1.node[1].mobility 	minSpeed 	2.4754652947633e-13
scalar scenarioPRJP1.node[1].mobility 	maxSpeed 	18.374874948784
scalar scenarioPRJP1.node[1].mobility 	totalDistance 	10719.921034344
scalar scenarioPRJP1.node[1].mobility 	totalCO2Emission 	2805.9973123771
scalar scenarioPRJP1.node[1].wlan.mgmt 	dataQueueLen:max 	34
attr interpolationmode  sample-hold
attr title  "data queue length, max"
scalar scenarioPRJP1.node[1].wlan.mgmt 	dataQueueLen:timeavg 	0
attr interpolationmode  sample-hold
attr title  "data queue length, timeavg"
scalar scenarioPRJP1.node[1].wlan.mgmt 	dropPkByQueue:count 	0
attr interpolationmode  none
attr source  dropPkByQueue
attr title  "packets dropped by queue, count"
scalar scenarioPRJP1.node[1].wlan.mgmt 	dropPkByQueue:sum(packetBytes) 	0
attr interpolationmode  none
attr source  dropPkByQueue
attr title  "packets dropped by queue, sum(packetBytes)"
scalar scenarioPRJP1.node[1].wlan.mac 	"number of received packets" 	8828
scalar scenarioPRJP1.node[1].wlan.mac 	"number of collisions" 	5362
scalar scenarioPRJP1.node[1].wlan.mac 	"number of internal collisions" 	0
scalar scenarioPRJP1.node[1].wlan.mac 	"number of retry for AC 0" 	11390
scalar scenarioPRJP1.node[1].wlan.mac 	"number of retry for AC 1" 	0
scalar scenarioPRJP1.node[1].wlan.mac 	"number of retry for AC 2" 	0
scalar scenarioPRJP1.node[1].wlan.mac 	"number of retry for AC 3" 	0
scalar scenarioPRJP1.node[1].wlan.mac 	"sent and received bits" 	8008480
scalar scenarioPRJP1.node[1].wlan.mac 	"sent packet within AC 0" 	1367
scalar scenarioPRJP1.node[1].wlan.mac 	"sent packet within AC 1" 	0
scalar scenarioPRJP1.node[1].wlan.mac 	"sent packet within AC 2" 	0
scalar scenarioPRJP1.node[1].wlan.mac 	"sent packet within AC 3" 	0
scalar scenarioPRJP1.node[1].wlan.mac 	"sent in TXOP " 	0
scalar scenarioPRJP1.node[1].wlan.mac 	"sentWithoutRetry AC 0" 	1299
scalar scenarioPRJP1.node[1].wlan.mac 	"sentWithoutRetry AC 1" 	0
scalar scenarioPRJP1.node[1].wlan.mac 	"sentWithoutRetry AC 2" 	0
scalar scenarioPRJP1.node[1].wlan.mac 	"sentWithoutRetry AC 3" 	0
scalar scenarioPRJP1.node[1].wlan.mac 	"numGivenUp AC 0" 	1878
scalar scenarioPRJP1.node[1].wlan.mac 	"numGivenUp AC 1" 	0
scalar scenarioPRJP1.node[1].wlan.mac 	"numGivenUp AC 2" 	0
scalar scenarioPRJP1.node[1].wlan.mac 	"numGivenUp AC 3" 	0
scalar scenarioPRJP1.node[1].wlan.mac 	"numDropped AC 0" 	3
scalar scenarioPRJP1.node[1].wlan.mac 	"numDropped AC 1" 	0
scalar scenarioPRJP1.node[1].wlan.mac 	"numDropped AC 2" 	0
scalar scenarioPRJP1.node[1].wlan.mac 	"numDropped AC 3" 	0
scalar scenarioPRJP1.node[1].wlan.mac 	rcvdPkFromLL:count 	82739
attr interpolationmode  none
attr source  packetReceivedFromLower
attr title  "packets received from lower layer, count"
scalar scenarioPRJP1.node[1].wlan.mac 	rcvdPkFromLL:sum(packetBytes) 	16696944
attr interpolationmode  none
attr source  packetReceivedFromLower
attr title  "packets received from lower layer, sum(packetBytes)"
scalar scenarioPRJP1.node[1].wlan.mac 	sentDownPk:count 	31368
attr interpolationmode  none
attr source  packetSentToLower
attr title  "packets sent to lower layer, count"
scalar scenarioPRJP1.node[1].wlan.mac 	sentDownPk:sum(packetBytes) 	6452648
attr interpolationmode  none
attr source  packetSentToLower
attr title  "packets sent to lower layer, sum(packetBytes)"
scalar scenarioPRJP1.node[1].wlan.mac 	rcvdPkFromHL:count 	11153
attr interpolationmode  none
attr source  packetReceivedFromUpper
attr title  "packets received from higher layer, count"
scalar scenarioPRJP1.node[1].wlan.mac 	rcvdPkFromHL:sum(packetBytes) 	1756044
attr interpolationmode  none
attr source  packetReceivedFromUpper
attr title  "packets received from higher layer, sum(packetBytes)"
scalar scenarioPRJP1.node[1].wlan.mac 	passedUpPk:count 	20145
attr interpolationmode  none
attr source  packetSentToUpper
attr title  "packets passed to higher layer, count"
scalar scenarioPRJP1.node[1].wlan.mac 	passedUpPk:sum(packetBytes) 	2236188
attr interpolationmode  none
attr source  packetSentToUpper
attr title  "packets passed to higher layer, sum(packetBytes)"
statistic scenarioPRJP1.node[1].wlan.radio 	radioChannel:histogram
field count 1
field mean 3
field stddev -nan
field sum 3
field sqrsum 9
field min 3
field max 3
attr interpolationmode  sample-hold
attr source  radioChannelChanged
attr title  "Radio channel, histogram"
bin	-INF	0
bin	2	0
bin	3	1
bin	4	0
scalar scenarioPRJP1.node[1].wlan.radio 	transmissionState:count 	125470
attr interpolationmode  sample-hold
attr source  transmissionStateChanged
attr title  "Radio transmission state, count"
scalar scenarioPRJP1.node[1].wlan.radio 	receptionState:count 	228769
attr interpolationmode  sample-hold
attr source  receptionStateChanged
attr title  "Radio reception state, count"
scalar scenarioPRJP1.node[1].wlan.radio 	radioMode:count 	62737
attr interpolationmode  sample-hold
attr source  radioModeChanged
attr title  "Radio mode, count"
statistic scenarioPRJP1.node[1].wlan.radio 	symbolErrorRate:histogram
field count 0
field mean -nan
field stddev -nan
field sum 0
field sqrsum 0
field min -nan
field max -nan
attr source  symbolErrorRate
attr title  "Symbol error rate, histogram"
bin	-INF	0
bin	-0.5	0
bin	-0.46666666666667	0
bin	-0.43333333333333	0
bin	-0.4	0
bin	-0.36666666666667	0
bin	-0.33333333333333	0
bin	-0.3	0
bin	-0.26666666666667	0
bin	-0.23333333333333	0
bin	-0.2	0
bin	-0.16666666666667	0
bin	-0.13333333333333	0
bin	-0.1	0
bin	-0.066666666666667	0
bin	-0.033333333333333	0
bin	0	0
bin	0.033333333333333	0
bin	0.066666666666667	0
bin	0.1	0
bin	0.13333333333333	0
bin	0.16666666666667	0
bin	0.2	0
bin	0.23333333333333	0
bin	0.26666666666667	0
bin	0.3	0
bin	0.33333333333333	0
bin	0.36666666666667	0
bin	0.4	0
bin	0.43333333333333	0
bin	0.46666666666667	0
bin	0.5	0
statistic scenarioPRJP1.node[1].wlan.radio 	bitErrorRate:histogram
field count 0
field mean -nan
field stddev -nan
field sum 0
field sqrsum 0
field min -nan
field max -nan
attr source  bitErrorRate
attr title  "Bit error rate, histogram"
bin	-INF	0
bin	-0.5	0
bin	-0.46666666666667	0
bin	-0.43333333333333	0
bin	-0.4	0
bin	-0.36666666666667	0
bin	-0.33333333333333	0
bin	-0.3	0
bin	-0.26666666666667	0
bin	-0.23333333333333	0
bin	-0.2	0
bin	-0.16666666666667	0
bin	-0.13333333333333	0
bin	-0.1	0
bin	-0.066666666666667	0
bin	-0.033333333333333	0
bin	0	0
bin	0.033333333333333	0
bin	0.066666666666667	0
bin	0.1	0
bin	0.13333333333333	0
bin	0.16666666666667	0
bin	0.2	0
bin	0.23333333333333	0
bin	0.26666666666667	0
bin	0.3	0
bin	0.33333333333333	0
bin	0.36666666666667	0
bin	0.4	0
bin	0.43333333333333	0
bin	0.46666666666667	0
bin	0.5	0
statistic scenarioPRJP1.node[1].wlan.radio 	packetErrorRate:histogram
field count 82739
field mean 0.061093562701128
field stddev 0.23368211539288
field sum 5054.8202843286
field sqrsum 4826.9183367702
field min 0
field max 1
attr source  packetErrorRate
attr title  "Packet error rate, histogram"
bin	-INF	0
bin	-1.2485078929592e-06	0
bin	-1.0820401738979e-06	0
bin	-9.1557245483672e-07	0
bin	-7.491047357755e-07	0
bin	-5.8263701671428e-07	0
bin	-4.1616929765305e-07	0
bin	-2.4970157859183e-07	0
bin	-8.3233859530611e-08	71952
bin	8.3233859530611e-08	412
bin	2.4970157859183e-07	174
bin	4.1616929765305e-07	95
bin	5.8263701671428e-07	96
bin	7.491047357755e-07	63
bin	9.1557245483672e-07	39
bin	1.0820401738979e-06	45
bin	1.2485078929592e-06	33
bin	1.4149756120204e-06	67
bin	1.5814433310816e-06	36
bin	1.7479110501428e-06	30
bin	1.914378769204e-06	33
bin	2.0808464882653e-06	27
bin	2.2473142073265e-06	35
bin	2.4137819263877e-06	14
bin	2.5802496454489e-06	20
bin	2.7467173645102e-06	42
bin	2.9131850835714e-06	16
bin	3.0796528026326e-06	13
bin	3.2461205216938e-06	14
bin	3.412588240755e-06	25
bin	3.5790559598163e-06	16
bin	3.7455236788775e-06	9442
statistic scenarioPRJP1.node[1].wlan.radio 	minSNIR:histogram
field count 82739
field mean 19943.248701319
field stddev 100942.09526788
field sum 1650084454.2984
field sqrsum 8.7595089387861e+14
field min 0.00020166080374419
field max 767729.66971752
attr source  minSNIR
attr title  "Min SNIR, histogram"
bin	-INF	0
bin	-4068.8382629212	0
bin	-3525.3848830458	0
bin	-2981.9315031704	0
bin	-2438.4781232949	0
bin	-1895.0247434195	0
bin	-1351.5713635441	0
bin	-808.11798366866	0
bin	-264.66460379323	51933
bin	278.7887760822	11202
bin	822.24215595762	2725
bin	1365.695535833	1488
bin	1909.1489157085	1244
bin	2452.6022955839	1074
bin	2996.0556754593	734
bin	3539.5090553348	531
bin	4082.9624352102	455
bin	4626.4158150856	313
bin	5169.869194961	370
bin	5713.3225748365	248
bin	6256.7759547119	277
bin	6800.2293345873	261
bin	7343.6827144627	265
bin	7887.1360943382	228
bin	8430.5894742136	267
bin	8974.042854089	355
bin	9517.4962339644	412
bin	10060.94961384	164
bin	10604.402993715	121
bin	11147.856373591	131
bin	11691.309753466	182
bin	12234.763133342	7759
scalar scenarioPRJP1.node[1].lo0.lo 	droppedPkBitError:count 	0
attr interpolationmode  none
attr source  dropPkBitError
attr title  "packets dropped/bit error, count"
scalar scenarioPRJP1.node[1].lo0.lo 	droppedPkBitError:sum(packetBytes) 	0
attr interpolationmode  none
attr source  dropPkBitError
attr title  "packets dropped/bit error, sum(packetBytes)"
scalar scenarioPRJP1.node[1].lo0.lo 	rcvdPkFromHL:count 	531
attr interpolationmode  none
attr source  packetReceivedFromUpper
attr title  "packets received from higher layer, count"
scalar scenarioPRJP1.node[1].lo0.lo 	rcvdPkFromHL:sum(packetBytes) 	276120
attr interpolationmode  none
attr source  packetReceivedFromUpper
attr title  "packets received from higher layer, sum(packetBytes)"
scalar scenarioPRJP1.node[1].lo0.lo 	passedUpPk:count 	531
attr interpolationmode  none
attr source  packetSentToUpper
attr title  "packets passed to higher layer, count"
scalar scenarioPRJP1.node[1].lo0.lo 	passedUpPk:sum(packetBytes) 	276120
attr interpolationmode  none
attr source  packetSentToUpper
attr title  "packets passed to higher layer, sum(packetBytes)"
scalar scenarioPRJP1.node[14].app 	"Total sent" 	2615
scalar scenarioPRJP1.node[14].app 	"Total received" 	244
scalar scenarioPRJP1.node[14].app 	"Total deleted" 	55
scalar scenarioPRJP1.node[14].app 	dropPk:count 	55
attr interpolationmode  none
attr source  dropPk
attr title  "packets dropped, count"
scalar scenarioPRJP1.node[14].app 	dropPk:sum(packetBytes) 	28160
attr interpolationmode  none
attr source  dropPk
attr title  "packets dropped, sum(packetBytes)"
scalar scenarioPRJP1.node[14].app 	outOfOrderPk:count 	7
attr interpolationmode  none
attr source  outOfOrderPk
attr title  "packets received out of order, count"
scalar scenarioPRJP1.node[14].app 	outOfOrderPk:sum(packetBytes) 	3584
attr interpolationmode  none
attr source  outOfOrderPk
attr title  "packets received out of order, sum(packetBytes)"
scalar scenarioPRJP1.node[14].app 	rcvdPk:count 	244
attr interpolationmode  none
attr source  rcvdPk
attr title  "packets received, count"
scalar scenarioPRJP1.node[14].app 	rcvdPk:sum(packetBytes) 	124928
attr interpolationmode  none
attr source  rcvdPk
attr title  "packets received, sum(packetBytes)"
statistic scenarioPRJP1.node[14].app 	endToEndDelay:histogram
field count 244
field mean 5.0774329751578
field stddev 6.3700605070623
field sum 1238.8936459385
field sqrsum 16150.773470465
field min 0.00096407157
field max 19.861044597319
attr interpolationmode  none
attr source  messageAge(rcvdPk)
attr title  "delay, histogram"
attr unit  s
bin	-INF	0
bin	-9.9290761913045	0
bin	-8.6050708229212	0
bin	-7.281065454538	0
bin	-5.9570600861547	0
bin	-4.6330547177714	0
bin	-3.3090493493882	0
bin	-1.9850439810049	0
bin	-0.66103861262163	119
bin	0.66296675576163	12
bin	1.9869721241449	8
bin	3.3109774925282	8
bin	4.6349828609114	11
bin	5.9589882292947	6
bin	7.282993597678	11
bin	8.6069989660612	6
bin	9.9310043344445	11
bin	11.255009702828	8
bin	12.579015071211	5
bin	13.903020439594	13
bin	15.227025807978	6
bin	16.551031176361	10
bin	17.875036544744	5
bin	19.199041913127	5
bin	20.523047281511	0
bin	21.847052649894	0
bin	23.171058018277	0
bin	24.49506338666	0
bin	25.819068755044	0
bin	27.143074123427	0
bin	28.46707949181	0
bin	29.791084860194	0
scalar scenarioPRJP1.node[14].app 	sentPk:count 	2615
attr interpolationmode  none
attr source  sentPk
attr title  "packets sent, count"
scalar scenarioPRJP1.node[14].app 	sentPk:sum(packetBytes) 	1338880
attr interpolationmode  none
attr source  sentPk
attr title  "packets sent, sum(packetBytes)"
scalar scenarioPRJP1.node[14].udp 	droppedPkBadChecksum:count 	0
attr interpolationmode  none
attr title  "packets dropped (checksum error), count"
scalar scenarioPRJP1.node[14].udp 	droppedPkWrongPort:count 	0
attr interpolationmode  none
attr title  "packets dropped (wrong port), count"
scalar scenarioPRJP1.node[14].udp 	passedUpPk:count 	306
attr interpolationmode  none
attr title  "packets passed up, count"
scalar scenarioPRJP1.node[14].udp 	rcvdPk:count 	306
attr interpolationmode  none
attr source  rcvdPk
attr title  "packets received, count"
scalar scenarioPRJP1.node[14].udp 	rcvdPk:sum(packetBytes) 	159120
attr interpolationmode  none
attr source  rcvdPk
attr title  "packets received, sum(packetBytes)"
scalar scenarioPRJP1.node[14].udp 	sentPk:count 	2615
attr interpolationmode  none
attr source  sentPk
attr title  "packets sent, count"
scalar scenarioPRJP1.node[14].udp 	sentPk:sum(packetBytes) 	1359800
attr interpolationmode  none
attr source  sentPk
attr title  "packets sent, sum(packetBytes)"
scalar scenarioPRJP1.node[14].networkLayer.arp 	failedARPResolution:count 	0
attr title  "ARP failed resolutions, count"
scalar scenarioPRJP1.node[14].networkLayer.arp 	completedARPResolution:count 	59
attr title  "ARP completed resolutions, count"
scalar scenarioPRJP1.node[14].networkLayer.arp 	initiatedARPResolution:count 	19
attr title  "ARP initiated resolutions, count"
scalar scenarioPRJP1.node[14].networkLayer.arp 	sentReply:count 	17
attr title  "ARP replies sent, count"
scalar scenarioPRJP1.node[14].networkLayer.arp 	sentReq:count 	24
attr title  "ARP request sent, count"
scalar scenarioPRJP1.node[14].mobility 	startTime 	2.5
scalar scenarioPRJP1.node[14].mobility 	totalTime 	947.5
scalar scenarioPRJP1.node[14].mobility 	stopTime 	950
scalar scenarioPRJP1.node[14].mobility 	minSpeed 	2.4755541804286e-13
scalar scenarioPRJP1.node[14].mobility 	maxSpeed 	20.548818215411
scalar scenarioPRJP1.node[14].mobility 	totalDistance 	10439.627416598
scalar scenarioPRJP1.node[14].mobility 	totalCO2Emission 	2797.3390627556
scalar scenarioPRJP1.node[14].wlan.mgmt 	dataQueueLen:max 	51
attr interpolationmode  sample-hold
attr title  "data queue length, max"
scalar scenarioPRJP1.node[14].wlan.mgmt 	dataQueueLen:timeavg 	0.0059187623494533
attr interpolationmode  sample-hold
attr title  "data queue length, timeavg"
scalar scenarioPRJP1.node[14].wlan.mgmt 	dropPkByQueue:count 	0
attr interpolationmode  none
attr source  dropPkByQueue
attr title  "packets dropped by queue, count"
scalar scenarioPRJP1.node[14].wlan.mgmt 	dropPkByQueue:sum(packetBytes) 	0
attr interpolationmode  none
attr source  dropPkByQueue
attr title  "packets dropped by queue, sum(packetBytes)"
scalar scenarioPRJP1.node[14].wlan.mac 	"number of received packets" 	4109
scalar scenarioPRJP1.node[14].wlan.mac 	"number of collisions" 	3211
scalar scenarioPRJP1.node[14].wlan.mac 	"number of internal collisions" 	0
scalar scenarioPRJP1.node[14].wlan.mac 	"number of retry for AC 0" 	5691
scalar scenarioPRJP1.node[14].wlan.mac 	"number of retry for AC 1" 	0
scalar scenarioPRJP1.node[14].wlan.mac 	"number of retry for AC 2" 	0
scalar scenarioPRJP1.node[14].wlan.mac 	"number of retry for AC 3" 	0
scalar scenarioPRJP1.node[14].wlan.mac 	"sent and received bits" 	4551648
scalar scenarioPRJP1.node[14].wlan.mac 	"sent packet within AC 0" 	583
scalar scenarioPRJP1.node[14].wlan.mac 	"sent packet within AC 1" 	0
scalar scenarioPRJP1.node[14].wlan.mac 	"sent packet within AC 2" 	0
scalar scenarioPRJP1.node[14].wlan.mac 	"sent packet within AC 3" 	0
scalar scenarioPRJP1.node[14].wlan.mac 	"sent in TXOP " 	0
scalar scenarioPRJP1.node[14].wlan.mac 	"sentWithoutRetry AC 0" 	553
scalar scenarioPRJP1.node[14].wlan.mac 	"sentWithoutRetry AC 1" 	0
scalar scenarioPRJP1.node[14].wlan.mac 	"sentWithoutRetry AC 2" 	0
scalar scenarioPRJP1.node[14].wlan.mac 	"sentWithoutRetry AC 3" 	0
scalar scenarioPRJP1.node[14].wlan.mac 	"numGivenUp AC 0" 	938
scalar scenarioPRJP1.node[14].wlan.mac 	"numGivenUp AC 1" 	0
scalar scenarioPRJP1.node[14].wlan.mac 	"numGivenUp AC 2" 	0
scalar scenarioPRJP1.node[14].wlan.mac 	"numGivenUp AC 3" 	0
scalar scenarioPRJP1.node[14].wlan.mac 	"numDropped AC 0" 	29
scalar scenarioPRJP1.node[14].wlan.mac 	"numDropped AC 1" 	0
scalar scenarioPRJP1.node[14].wlan.mac 	"numDropped AC 2" 	0
scalar scenarioPRJP1.node[14].wlan.mac 	"numDropped AC 3" 	0
scalar scenarioPRJP1.node[14].wlan.mac 	rcvdPkFromLL:count 	39719
attr interpolationmode  none
attr source  packetReceivedFromLower
attr title  "packets received from lower layer, count"
scalar scenarioPRJP1.node[14].wlan.mac 	rcvdPkFromLL:sum(packetBytes) 	8454042
attr interpolationmode  none
attr source  packetReceivedFromLower
attr title  "packets received from lower layer, sum(packetBytes)"
scalar scenarioPRJP1.node[14].wlan.mac 	sentDownPk:count 	16716
attr interpolationmode  none
attr source  packetSentToLower
attr title  "packets sent to lower layer, count"
scalar scenarioPRJP1.node[14].wlan.mac 	sentDownPk:sum(packetBytes) 	3331074
attr interpolationmode  none
attr source  packetSentToLower
attr title  "packets sent to lower layer, sum(packetBytes)"
scalar scenarioPRJP1.node[14].wlan.mac 	rcvdPkFromHL:count 	6945
attr interpolationmode  none
attr source  packetReceivedFromUpper
attr title  "packets received from higher layer, count"
scalar scenarioPRJP1.node[14].wlan.mac 	rcvdPkFromHL:sum(packetBytes) 	962604
attr interpolationmode  none
attr source  packetReceivedFromUpper
attr title  "packets received from higher layer, sum(packetBytes)"
scalar scenarioPRJP1.node[14].wlan.mac 	passedUpPk:count 	9723
attr interpolationmode  none
attr source  packetSentToUpper
attr title  "packets passed to higher layer, count"
scalar scenarioPRJP1.node[14].wlan.mac 	passedUpPk:sum(packetBytes) 	1034740
attr interpolationmode  none
attr source  packetSentToUpper
attr title  "packets passed to higher layer, sum(packetBytes)"
statistic scenarioPRJP1.node[14].wlan.radio 	radioChannel:histogram
field count 1
field mean 3
field stddev -nan
field sum 3
field sqrsum 9
field min 3
field max 3
attr interpolationmode  sample-hold
attr source  radioChannelChanged
attr title  "Radio channel, histogram"
bin	-INF	0
bin	2	0
bin	3	1
bin	4	0
scalar scenarioPRJP1.node[14].wlan.radio 	transmissionState:count 	66864
attr interpolationmode  sample-hold
attr source  transmissionStateChanged
attr title  "Radio transmission state, count"
scalar scenarioPRJP1.node[14].wlan.radio 	receptionState:count 	113179
attr interpolationmode  sample-hold
attr source  receptionStateChanged
attr title  "Radio reception state, count"
scalar scenarioPRJP1.node[14].wlan.radio 	radioMode:count 	33434
attr interpolationmode  sample-hold
attr source  radioModeChanged
attr title  "Radio mode, count"
statistic scenarioPRJP1.node[14].wlan.radio 	symbolErrorRate:histogram
field count 0
field mean -nan
field stddev -nan
field sum 0
field sqrsum 0
field min -nan
field max -nan
attr source  symbolErrorRate
attr title  "Symbol error rate, histogram"
bin	-INF	0
bin	-0.5	0
bin	-0.46666666666667	0
bin	-0.43333333333333	0
bin	-0.4	0
bin	-0.36666666666667	0
bin	-0.33333333333333	0
bin	-0.3	0
bin	-0.26666666666667	0
bin	-0.23333333333333	0
bin	-0.2	0
bin	-0.16666666666667	0
bin	-0.13333333333333	0
bin	-0.1	0
bin	-0.066666666666667	0
bin	-0.033333333333333	0
bin	0	0
bin	0.033333333333333	0
bin	0.066666666666667	0
bin	0.1	0
bin	0.13333333333333	0
bin	0.16666666666667	0
bin	0.2	0
bin	0.23333333333333	0
bin	0.26666666666667	0
bin	0.3	0
bin	0.33333333333333	0
bin	0.36666666666667	0
bin	0.4	0
bin	0.43333333333333	0
bin	0.46666666666667	0
bin	0.5	0
statistic scenarioPRJP1.node[14].wlan.radio 	bitErrorRate:histogram
field count 0
field mean -nan
field stddev -nan
field sum 0
field sqrsum 0
field min -nan
field max -nan
attr source  bitErrorRate
attr title  "Bit error rate, histogram"
bin	-INF	0
bin	-0.5	0
bin	-0.46666666666667	0
bin	-0.43333333333333	0
bin	-0.4	0
bin	-0.36666666666667	0
bin	-0.33333333333333	0
bin	-0.3	0
bin	-0.26666666666667	0
bin	-0.23333333333333	0
bin	-0.2	0
bin	-0.16666666666667	0
bin	-0.13333333333333	0
bin	-0.1	0
bin	-0.066666666666667	0
bin	-0.033333333333333	0
bin	0	0
bin	0.033333333333333	0
bin	0.066666666666667	0
bin	0.1	0
bin	0.13333333333333	0
bin	0.16666666666667	0
bin	0.2	0
bin	0.23333333333333	0
bin	0.26666666666667	0
bin	0.3	0
bin	0.33333333333333	0
bin	0.36666666666667	0
bin	0.4	0
bin	0.43333333333333	0
bin	0.46666666666667	0
bin	0.5	0
statistic scenarioPRJP1.node[14].wlan.radio 	packetErrorRate:histogram
field count 39719
field mean 0.075446687015811
field stddev 0.25683060062629
field sum 2996.666961581
field sqrsum 2845.9656190715
field min 0
field max 1
attr source  packetErrorRate
attr title  "Packet error rate, histogram"
bin	-INF	0
bin	-0.5	0
bin	-0.46666666666667	0
bin	-0.43333333333333	0
bin	-0.4	0
bin	-0.36666666666667	0
bin	-0.33333333333333	0
bin	-0.3	0
bin	-0.26666666666667	0
bin	-0.23333333333333	0
bin	-0.2	0
bin	-0.16666666666667	0
bin	-0.13333333333333	0
bin	-0.1	0
bin	-0.066666666666667	0
bin	-0.033333333333333	0
bin	0	36073
bin	0.033333333333333	196
bin	0.066666666666667	99
bin	0.1	77
bin	0.13333333333333	43
bin	0.16666666666667	45
bin	0.2	36
bin	0.23333333333333	17
bin	0.26666666666667	45
bin	0.3	42
bin	0.33333333333333	16
bin	0.36666666666667	22
bin	0.4	28
bin	0.43333333333333	18
bin	0.46666666666667	19
bin	0.5	2943
statistic scenarioPRJP1.node[14].wlan.radio 	minSNIR:histogram
field count 39719
field mean 4073.6286482685
field stddev 19751.181257152
field sum 161800456.28058
field sqrsum 16153470632706
field min 0.0010005740204095
field max 753086.78817764
attr source  minSNIR
attr title  "Min SNIR, histogram"
bin	-INF	0
bin	-4017.4305449388	0
bin	-3476.2619525293	0
bin	-2935.0933601197	0
bin	-2393.9247677102	0
bin	-1852.7561753007	0
bin	-1311.5875828911	0
bin	-770.41899048157	0
bin	-229.25039807203	27389
bin	311.91819433751	4585
bin	853.08678674706	878
bin	1394.2553791566	692
bin	1935.4239715661	375
bin	2476.5925639757	327
bin	3017.7611563852	305
bin	3558.9297487948	268
bin	4100.0983412043	198
bin	4641.2669336138	133
bin	5182.4355260234	129
bin	5723.6041184329	201
bin	6264.7727108425	163
bin	6805.941303252	100
bin	7347.1098956616	64
bin	7888.2784880711	69
bin	8429.4470804806	77
bin	8970.6156728902	64
bin	9511.7842652997	66
bin	10052.952857709	62
bin	10594.121450119	21
bin	11135.290042528	38
bin	11676.458634938	92
bin	12217.627227347	3423
scalar scenarioPRJP1.node[14].lo0.lo 	droppedPkBitError:count 	0
attr interpolationmode  none
attr source  dropPkBitError
attr title  "packets dropped/bit error, count"
scalar scenarioPRJP1.node[14].lo0.lo 	droppedPkBitError:sum(packetBytes) 	0
attr interpolationmode  none
attr source  dropPkBitError
attr title  "packets dropped/bit error, sum(packetBytes)"
scalar scenarioPRJP1.node[14].lo0.lo 	rcvdPkFromHL:count 	306
attr interpolationmode  none
attr source  packetReceivedFromUpper
attr title  "packets received from higher layer, count"
scalar scenarioPRJP1.node[14].lo0.lo 	rcvdPkFromHL:sum(packetBytes) 	159120
attr interpolationmode  none
attr source  packetReceivedFromUpper
attr title  "packets received from higher layer, sum(packetBytes)"
scalar scenarioPRJP1.node[14].lo0.lo 	passedUpPk:count 	306
attr interpolationmode  none
attr source  packetSentToUpper
attr title  "packets passed to higher layer, count"
scalar scenarioPRJP1.node[14].lo0.lo 	passedUpPk:sum(packetBytes) 	159120
attr interpolationmode  none
attr source  packetSentToUpper
attr title  "packets passed to higher layer, sum(packetBytes)"
scalar scenarioPRJP1.node[2].app 	"Total sent" 	2607
scalar scenarioPRJP1.node[2].app 	"Total received" 	511
scalar scenarioPRJP1.node[2].app 	"Total deleted" 	77
scalar scenarioPRJP1.node[2].app 	dropPk:count 	77
attr interpolationmode  none
attr source  dropPk
attr title  "packets dropped, count"
scalar scenarioPRJP1.node[2].app 	dropPk:sum(packetBytes) 	39424
attr interpolationmode  none
attr source  dropPk
attr title  "packets dropped, sum(packetBytes)"
scalar scenarioPRJP1.node[2].app 	outOfOrderPk:count 	28
attr interpolationmode  none
attr source  outOfOrderPk
attr title  "packets received out of order, count"
scalar scenarioPRJP1.node[2].app 	outOfOrderPk:sum(packetBytes) 	14336
attr interpolationmode  none
attr source  outOfOrderPk
attr title  "packets received out of order, sum(packetBytes)"
scalar scenarioPRJP1.node[2].app 	rcvdPk:count 	511
attr interpolationmode  none
attr source  rcvdPk
attr title  "packets received, count"
scalar scenarioPRJP1.node[2].app 	rcvdPk:sum(packetBytes) 	261632
attr interpolationmode  none
attr source  rcvdPk
attr title  "packets received, sum(packetBytes)"
statistic scenarioPRJP1.node[2].app 	endToEndDelay:histogram
field count 511
field mean 4.5967798507701
field stddev 6.0875376657306
field sum 2348.9545037435
field sqrsum 29697.265297345
field min 0.000956073625
field max 19.943593551521
attr interpolationmode  none
attr source  messageAge(rcvdPk)
attr title  "delay, histogram"
attr unit  s
bin	-INF	0
bin	-9.970350698311	0
bin	-8.6408420649851	0
bin	-7.3113334316593	0
bin	-5.9818247983334	0
bin	-4.6523161650075	0
bin	-3.3228075316817	0
bin	-1.9932988983558	0
bin	-0.66379026502993	247
bin	0.66571836829593	40
bin	1.9952270016218	28
bin	3.3247356349477	16
bin	4.6542442682735	22
bin	5.9837529015994	9
bin	7.3132615349253	13
bin	8.6427701682511	16
bin	9.972278801577	26
bin	11.301787434903	25
bin	12.631296068229	10
bin	13.960804701555	9
bin	15.29031333488	15
bin	16.619821968206	11
bin	17.949330601532	16
bin	19.278839234858	8
bin	20.608347868184	0
bin	21.93785650151	0
bin	23.267365134836	0
bin	24.596873768162	0
bin	25.926382401487	0
bin	27.255891034813	0
bin	28.585399668139	0
bin	29.914908301465	0
scalar scenarioPRJP1.node[2].app 	sentPk:count 	2607
attr interpolationmode  none
attr source  sentPk
attr title  "packets sent, count"
scalar scenarioPRJP1.node[2].app 	sentPk:sum(packetBytes) 	1334784
attr interpolationmode  none
attr source  sentPk
attr title  "packets sent, sum(packetBytes)"
scalar scenarioPRJP1.node[2].udp 	droppedPkBadChecksum:count 	0
attr interpolationmode  none
attr title  "packets dropped (checksum error), count"
scalar scenarioPRJP1.node[2].udp 	droppedPkWrongPort:count 	0
attr interpolationmode  none
attr title  "packets dropped (wrong port), count"
scalar scenarioPRJP1.node[2].udp 	passedUpPk:count 	616
attr interpolationmode  none
attr title  "packets passed up, count"
scalar scenarioPRJP1.node[2].udp 	rcvdPk:count 	616
attr interpolationmode  none
attr source  rcvdPk
attr title  "packets received, count"
scalar scenarioPRJP1.node[2].udp 	rcvdPk:sum(packetBytes) 	320320
attr interpolationmode  none
attr source  rcvdPk
attr title  "packets received, sum(packetBytes)"
scalar scenarioPRJP1.node[2].udp 	sentPk:count 	2607
attr interpolationmode  none
attr source  sentPk
attr title  "packets sent, count"
scalar scenarioPRJP1.node[2].udp 	sentPk:sum(packetBytes) 	1355640
attr interpolationmode  none
attr source  sentPk
attr title  "packets sent, sum(packetBytes)"
scalar scenarioPRJP1.node[2].networkLayer.arp 	failedARPResolution:count 	0
attr title  "ARP failed resolutions, count"
scalar scenarioPRJP1.node[2].networkLayer.arp 	completedARPResolution:count 	113
attr title  "ARP completed resolutions, count"
scalar scenarioPRJP1.node[2].networkLayer.arp 	initiatedARPResolution:count 	32
attr title  "ARP initiated resolutions, count"
scalar scenarioPRJP1.node[2].networkLayer.arp 	sentReply:count 	25
attr title  "ARP replies sent, count"
scalar scenarioPRJP1.node[2].networkLayer.arp 	sentReq:count 	38
attr title  "ARP request sent, count"
scalar scenarioPRJP1.node[2].mobility 	startTime 	0.1
scalar scenarioPRJP1.node[2].mobility 	totalTime 	949.9
scalar scenarioPRJP1.node[2].mobility 	stopTime 	950
scalar scenarioPRJP1.node[2].mobility 	minSpeed 	2.4756160267386e-13
scalar scenarioPRJP1.node[2].mobility 	maxSpeed 	15.44384694818
scalar scenarioPRJP1.node[2].mobility 	totalDistance 	9548.2966010281
scalar scenarioPRJP1.node[2].mobility 	totalCO2Emission 	2412.2847060629
scalar scenarioPRJP1.node[2].wlan.mgmt 	dataQueueLen:max 	100
attr interpolationmode  sample-hold
attr title  "data queue length, max"
scalar scenarioPRJP1.node[2].wlan.mgmt 	dataQueueLen:timeavg 	0.36993409615472
attr interpolationmode  sample-hold
attr title  "data queue length, timeavg"
scalar scenarioPRJP1.node[2].wlan.mgmt 	dropPkByQueue:count 	109
attr interpolationmode  none
attr source  dropPkByQueue
attr title  "packets dropped by queue, count"
scalar scenarioPRJP1.node[2].wlan.mgmt 	dropPkByQueue:sum(packetBytes) 	57404
attr interpolationmode  none
attr source  dropPkByQueue
attr title  "packets dropped by queue, sum(packetBytes)"
scalar scenarioPRJP1.node[2].wlan.mac 	"number of received packets" 	12079
scalar scenarioPRJP1.node[2].wlan.mac 	"number of collisions" 	12546
scalar scenarioPRJP1.node[2].wlan.mac 	"number of internal collisions" 	0
scalar scenarioPRJP1.node[2].wlan.mac 	"number of retry for AC 0" 	18544
scalar scenarioPRJP1.node[2].wlan.mac 	"number of retry for AC 1" 	0
scalar scenarioPRJP1.node[2].wlan.mac 	"number of retry for AC 2" 	0
scalar scenarioPRJP1.node[2].wlan.mac 	"number of retry for AC 3" 	0
scalar scenarioPRJP1.node[2].wlan.mac 	"sent and received bits" 	8102336
scalar scenarioPRJP1.node[2].wlan.mac 	"sent packet within AC 0" 	1397
scalar scenarioPRJP1.node[2].wlan.mac 	"sent packet within AC 1" 	0
scalar scenarioPRJP1.node[2].wlan.mac 	"sent packet within AC 2" 	0
scalar scenarioPRJP1.node[2].wlan.mac 	"sent packet within AC 3" 	0
scalar scenarioPRJP1.node[2].wlan.mac 	"sent in TXOP " 	0
scalar scenarioPRJP1.node[2].wlan.mac 	"sentWithoutRetry AC 0" 	1308
scalar scenarioPRJP1.node[2].wlan.mac 	"sentWithoutRetry AC 1" 	0
scalar scenarioPRJP1.node[2].wlan.mac 	"sentWithoutRetry AC 2" 	0
scalar scenarioPRJP1.node[2].wlan.mac 	"sentWithoutRetry AC 3" 	0
scalar scenarioPRJP1.node[2].wlan.mac 	"numGivenUp AC 0" 	3060
scalar scenarioPRJP1.node[2].wlan.mac 	"numGivenUp AC 1" 	0
scalar scenarioPRJP1.node[2].wlan.mac 	"numGivenUp AC 2" 	0
scalar scenarioPRJP1.node[2].wlan.mac 	"numGivenUp AC 3" 	0
scalar scenarioPRJP1.node[2].wlan.mac 	"numDropped AC 0" 	295
scalar scenarioPRJP1.node[2].wlan.mac 	"numDropped AC 1" 	0
scalar scenarioPRJP1.node[2].wlan.mac 	"numDropped AC 2" 	0
scalar scenarioPRJP1.node[2].wlan.mac 	"numDropped AC 3" 	0
scalar scenarioPRJP1.node[2].wlan.mac 	rcvdPkFromLL:count 	105107
attr interpolationmode  none
attr source  packetReceivedFromLower
attr title  "packets received from lower layer, count"
scalar scenarioPRJP1.node[2].wlan.mac 	rcvdPkFromLL:sum(packetBytes) 	22553698
attr interpolationmode  none
attr source  packetReceivedFromLower
attr title  "packets received from lower layer, sum(packetBytes)"
scalar scenarioPRJP1.node[2].wlan.mac 	sentDownPk:count 	42824
attr interpolationmode  none
attr source  packetSentToLower
attr title  "packets sent to lower layer, count"
scalar scenarioPRJP1.node[2].wlan.mac 	sentDownPk:sum(packetBytes) 	9819426
attr interpolationmode  none
attr source  packetSentToLower
attr title  "packets sent to lower layer, sum(packetBytes)"
scalar scenarioPRJP1.node[2].wlan.mac 	rcvdPkFromHL:count 	12496
attr interpolationmode  none
attr source  packetReceivedFromUpper
attr title  "packets received from higher layer, count"
scalar scenarioPRJP1.node[2].wlan.mac 	rcvdPkFromHL:sum(packetBytes) 	2346832
attr interpolationmode  none
attr source  packetReceivedFromUpper
attr title  "packets received from higher layer, sum(packetBytes)"
scalar scenarioPRJP1.node[2].wlan.mac 	passedUpPk:count 	19914
attr interpolationmode  none
attr source  packetSentToUpper
attr title  "packets passed to higher layer, count"
scalar scenarioPRJP1.node[2].wlan.mac 	passedUpPk:sum(packetBytes) 	2548904
attr interpolationmode  none
attr source  packetSentToUpper
attr title  "packets passed to higher layer, sum(packetBytes)"
statistic scenarioPRJP1.node[2].wlan.radio 	radioChannel:histogram
field count 1
field mean 3
field stddev -nan
field sum 3
field sqrsum 9
field min 3
field max 3
attr interpolationmode  sample-hold
attr source  radioChannelChanged
attr title  "Radio channel, histogram"
bin	-INF	0
bin	2	0
bin	3	1
bin	4	0
scalar scenarioPRJP1.node[2].wlan.radio 	transmissionState:count 	171296
attr interpolationmode  sample-hold
attr source  transmissionStateChanged
attr title  "Radio transmission state, count"
scalar scenarioPRJP1.node[2].wlan.radio 	receptionState:count 	296851
attr interpolationmode  sample-hold
attr source  receptionStateChanged
attr title  "Radio reception state, count"
scalar scenarioPRJP1.node[2].wlan.radio 	radioMode:count 	85650
attr interpolationmode  sample-hold
attr source  radioModeChanged
attr title  "Radio mode, count"
statistic scenarioPRJP1.node[2].wlan.radio 	symbolErrorRate:histogram
field count 0
field mean -nan
field stddev -nan
field sum 0
field sqrsum 0
field min -nan
field max -nan
attr source  symbolErrorRate
attr title  "Symbol error rate, histogram"
bin	-INF	0
bin	-0.5	0
bin	-0.46666666666667	0
bin	-0.43333333333333	0
bin	-0.4	0
bin	-0.36666666666667	0
bin	-0.33333333333333	0
bin	-0.3	0
bin	-0.26666666666667	0
bin	-0.23333333333333	0
bin	-0.2	0
bin	-0.16666666666667	0
bin	-0.13333333333333	0
bin	-0.1	0
bin	-0.066666666666667	0
bin	-0.033333333333333	0
bin	0	0
bin	0.033333333333333	0
bin	0.066666666666667	0
bin	0.1	0
bin	0.13333333333333	0
bin	0.16666666666667	0
bin	0.2	0
bin	0.23333333333333	0
bin	0.26666666666667	0
bin	0.3	0
bin	0.33333333333333	0
bin	0.36666666666667	0
bin	0.4	0
bin	0.43333333333333	0
bin	0.46666666666667	0
bin	0.5	0
statistic scenarioPRJP1.node[2].wlan.radio 	bitErrorRate:histogram
field count 0
field mean -nan
field stddev -nan
field sum 0
field sqrsum 0
field min -nan
field max -nan
attr source  bitErrorRate
attr title  "Bit error rate, histogram"
bin	-INF	0
bin	-0.5	0
bin	-0.46666666666667	0
bin	-0.43333333333333	0
bin	-0.4	0
bin	-0.36666666666667	0
bin	-0.33333333333333	0
bin	-0.3	0
bin	-0.26666666666667	0
bin	-0.23333333333333	0
bin	-0.2	0
bin	-0.16666666666667	0
bin	-0.13333333333333	0
bin	-0.1	0
bin	-0.066666666666667	0
bin	-0.033333333333333	0
bin	0	0
bin	0.033333333333333	0
bin	0.066666666666667	0
bin	0.1	0
bin	0.13333333333333	0
bin	0.16666666666667	0
bin	0.2	0
bin	0.23333333333333	0
bin	0.26666666666667	0
bin	0.3	0
bin	0.33333333333333	0
bin	0.36666666666667	0
bin	0.4	0
bin	0.43333333333333	0
bin	0.46666666666667	0
bin	0.5	0
statistic scenarioPRJP1.node[2].wlan.radio 	packetErrorRate:histogram
field count 105107
field mean 0.11242034399109
field stddev 0.30978455707495
field sum 11816.165095871
field sqrsum 11415.029329967
field min 0
field max 1
attr source  packetErrorRate
attr title  "Packet error rate, histogram"
bin	-INF	0
bin	-0.5	0
bin	-0.46666666666667	0
bin	-0.43333333333333	0
bin	-0.4	0
bin	-0.36666666666667	0
bin	-0.33333333333333	0
bin	-0.3	0
bin	-0.26666666666667	0
bin	-0.23333333333333	0
bin	-0.2	0
bin	-0.16666666666667	0
bin	-0.13333333333333	0
bin	-0.1	0
bin	-0.066666666666667	0
bin	-0.033333333333333	0
bin	0	91675
bin	0.033333333333333	421
bin	0.066666666666667	214
bin	0.1	144
bin	0.13333333333333	135
bin	0.16666666666667	145
bin	0.2	116
bin	0.23333333333333	106
bin	0.26666666666667	87
bin	0.3	77
bin	0.33333333333333	64
bin	0.36666666666667	57
bin	0.4	53
bin	0.43333333333333	68
bin	0.46666666666667	72
bin	0.5	11673
statistic scenarioPRJP1.node[2].wlan.radio 	minSNIR:histogram
field count 105107
field mean 15814.591842346
field stddev 111723.81302264
field sum 1662224304.7735
field sqrsum 1.3382426048458e+15
field min 0.00016891213767351
field max 13790813.680777
attr source  minSNIR
attr title  "Min SNIR, histogram"
bin	-INF	0
bin	-86871.163585218	0
bin	-75139.267431152	0
bin	-63407.371277085	0
bin	-51675.475123019	0
bin	-39943.578968953	0
bin	-28211.682814886	0
bin	-16479.78666082	0
bin	-4747.8905067533	95698
bin	6984.0056473131	3232
bin	18715.901801379	1705
bin	30447.797955446	510
bin	42179.694109512	587
bin	53911.590263579	244
bin	65643.486417645	175
bin	77375.382571712	91
bin	89107.278725778	63
bin	100839.17487984	83
bin	112571.07103391	41
bin	124302.96718798	36
bin	136034.86334204	72
bin	147766.75949611	25
bin	159498.65565018	90
bin	171230.55180424	486
bin	182962.44795831	39
bin	194694.34411238	4
bin	206426.24026644	37
bin	218158.13642051	45
bin	229890.03257458	17
bin	241621.92872864	12
bin	253353.82488271	9
bin	265085.72103677	1806
scalar scenarioPRJP1.node[2].lo0.lo 	droppedPkBitError:count 	0
attr interpolationmode  none
attr source  dropPkBitError
attr title  "packets dropped/bit error, count"
scalar scenarioPRJP1.node[2].lo0.lo 	droppedPkBitError:sum(packetBytes) 	0
attr interpolationmode  none
attr source  dropPkBitError
attr title  "packets dropped/bit error, sum(packetBytes)"
scalar scenarioPRJP1.node[2].lo0.lo 	rcvdPkFromHL:count 	616
attr interpolationmode  none
attr source  packetReceivedFromUpper
attr title  "packets received from higher layer, count"
scalar scenarioPRJP1.node[2].lo0.lo 	rcvdPkFromHL:sum(packetBytes) 	320320
attr interpolationmode  none
attr source  packetReceivedFromUpper
attr title  "packets received from higher layer, sum(packetBytes)"
scalar scenarioPRJP1.node[2].lo0.lo 	passedUpPk:count 	616
attr interpolationmode  none
attr source  packetSentToUpper
attr title  "packets passed to higher layer, count"
scalar scenarioPRJP1.node[2].lo0.lo 	passedUpPk:sum(packetBytes) 	320320
attr interpolationmode  none
attr source  packetSentToUpper
attr title  "packets passed to higher layer, sum(packetBytes)"
scalar scenarioPRJP1.node[15].app 	"Total sent" 	2615
scalar scenarioPRJP1.node[15].app 	"Total received" 	467
scalar scenarioPRJP1.node[15].app 	"Total deleted" 	84
scalar scenarioPRJP1.node[15].app 	dropPk:count 	84
attr interpolationmode  none
attr source  dropPk
attr title  "packets dropped, count"
scalar scenarioPRJP1.node[15].app 	dropPk:sum(packetBytes) 	43008
attr interpolationmode  none
attr source  dropPk
attr title  "packets dropped, sum(packetBytes)"
scalar scenarioPRJP1.node[15].app 	outOfOrderPk:count 	43
attr interpolationmode  none
attr source  outOfOrderPk
attr title  "packets received out of order, count"
scalar scenarioPRJP1.node[15].app 	outOfOrderPk:sum(packetBytes) 	22016
attr interpolationmode  none
attr source  outOfOrderPk
attr title  "packets received out of order, sum(packetBytes)"
scalar scenarioPRJP1.node[15].app 	rcvdPk:count 	467
attr interpolationmode  none
attr source  rcvdPk
attr title  "packets received, count"
scalar scenarioPRJP1.node[15].app 	rcvdPk:sum(packetBytes) 	239104
attr interpolationmode  none
attr source  rcvdPk
attr title  "packets received, sum(packetBytes)"
statistic scenarioPRJP1.node[15].app 	endToEndDelay:histogram
field count 467
field mean 5.2960358293977
field stddev 6.3016149626027
field sum 2473.2487323287
field sqrsum 31603.43753122
field min 0.000964051499
field max 19.871395051873
attr interpolationmode  none
attr source  messageAge(rcvdPk)
attr title  "delay, histogram"
attr unit  s
bin	-INF	0
bin	-9.934250757212	0
bin	-8.6095553879193	0
bin	-7.2848600186267	0
bin	-5.960164649334	0
bin	-4.6354692800413	0
bin	-3.3107739107487	0
bin	-1.986078541456	0
bin	-0.66138317216333	208
bin	0.66331219712933	32
bin	1.988007566422	16
bin	3.3127029357147	24
bin	4.6373983050073	10
bin	5.9620936743	17
bin	7.2867890435927	15
bin	8.6114844128853	22
bin	9.936179782178	24
bin	11.260875151471	20
bin	12.585570520763	15
bin	13.910265890056	9
bin	15.234961259349	16
bin	16.559656628641	16
bin	17.884351997934	12
bin	19.209047367227	11
bin	20.533742736519	0
bin	21.858438105812	0
bin	23.183133475105	0
bin	24.507828844397	0
bin	25.83252421369	0
bin	27.157219582983	0
bin	28.481914952275	0
bin	29.806610321568	0
scalar scenarioPRJP1.node[15].app 	sentPk:count 	2615
attr interpolationmode  none
attr source  sentPk
attr title  "packets sent, count"
scalar scenarioPRJP1.node[15].app 	sentPk:sum(packetBytes) 	1338880
attr interpolationmode  none
attr source  sentPk
attr title  "packets sent, sum(packetBytes)"
scalar scenarioPRJP1.node[15].udp 	droppedPkBadChecksum:count 	0
attr interpolationmode  none
attr title  "packets dropped (checksum error), count"
scalar scenarioPRJP1.node[15].udp 	droppedPkWrongPort:count 	0
attr interpolationmode  none
attr title  "packets dropped (wrong port), count"
scalar scenarioPRJP1.node[15].udp 	passedUpPk:count 	594
attr interpolationmode  none
attr title  "packets passed up, count"
scalar scenarioPRJP1.node[15].udp 	rcvdPk:count 	594
attr interpolationmode  none
attr source  rcvdPk
attr title  "packets received, count"
scalar scenarioPRJP1.node[15].udp 	rcvdPk:sum(packetBytes) 	308880
attr interpolationmode  none
attr source  rcvdPk
attr title  "packets received, sum(packetBytes)"
scalar scenarioPRJP1.node[15].udp 	sentPk:count 	2615
attr interpolationmode  none
attr source  sentPk
attr title  "packets sent, count"
scalar scenarioPRJP1.node[15].udp 	sentPk:sum(packetBytes) 	1359800
attr interpolationmode  none
attr source  sentPk
attr title  "packets sent, sum(packetBytes)"
scalar scenarioPRJP1.node[15].networkLayer.arp 	failedARPResolution:count 	0
attr title  "ARP failed resolutions, count"
scalar scenarioPRJP1.node[15].networkLayer.arp 	completedARPResolution:count 	83
attr title  "ARP completed resolutions, count"
scalar scenarioPRJP1.node[15].networkLayer.arp 	initiatedARPResolution:count 	24
attr title  "ARP initiated resolutions, count"
scalar scenarioPRJP1.node[15].networkLayer.arp 	sentReply:count 	21
attr title  "ARP replies sent, count"
scalar scenarioPRJP1.node[15].networkLayer.arp 	sentReq:count 	31
attr title  "ARP request sent, count"
scalar scenarioPRJP1.node[15].mobility 	startTime 	2.5
scalar scenarioPRJP1.node[15].mobility 	totalTime 	947.5
scalar scenarioPRJP1.node[15].mobility 	stopTime 	950
scalar scenarioPRJP1.node[15].mobility 	minSpeed 	2.4756534596787e-13
scalar scenarioPRJP1.node[15].mobility 	maxSpeed 	16.914271433182
scalar scenarioPRJP1.node[15].mobility 	totalDistance 	8858.8306959486
scalar scenarioPRJP1.node[15].mobility 	totalCO2Emission 	2454.2187126002
scalar scenarioPRJP1.node[15].wlan.mgmt 	dataQueueLen:max 	88
attr interpolationmode  sample-hold
attr title  "data queue length, max"
scalar scenarioPRJP1.node[15].wlan.mgmt 	dataQueueLen:timeavg 	0.20817994820647
attr interpolationmode  sample-hold
attr title  "data queue length, timeavg"
scalar scenarioPRJP1.node[15].wlan.mgmt 	dropPkByQueue:count 	0
attr interpolationmode  none
attr source  dropPkByQueue
attr title  "packets dropped by queue, count"
scalar scenarioPRJP1.node[15].wlan.mgmt 	dropPkByQueue:sum(packetBytes) 	0
attr interpolationmode  none
attr source  dropPkByQueue
attr title  "packets dropped by queue, sum(packetBytes)"
scalar scenarioPRJP1.node[15].wlan.mac 	"number of received packets" 	10228
scalar scenarioPRJP1.node[15].wlan.mac 	"number of collisions" 	9479
scalar scenarioPRJP1.node[15].wlan.mac 	"number of internal collisions" 	0
scalar scenarioPRJP1.node[15].wlan.mac 	"number of retry for AC 0" 	15522
scalar scenarioPRJP1.node[15].wlan.mac 	"number of retry for AC 1" 	0
scalar scenarioPRJP1.node[15].wlan.mac 	"number of retry for AC 2" 	0
scalar scenarioPRJP1.node[15].wlan.mac 	"number of retry for AC 3" 	0
scalar scenarioPRJP1.node[15].wlan.mac 	"sent and received bits" 	6573504
scalar scenarioPRJP1.node[15].wlan.mac 	"sent packet within AC 0" 	951
scalar scenarioPRJP1.node[15].wlan.mac 	"sent packet within AC 1" 	0
scalar scenarioPRJP1.node[15].wlan.mac 	"sent packet within AC 2" 	0
scalar scenarioPRJP1.node[15].wlan.mac 	"sent packet within AC 3" 	0
scalar scenarioPRJP1.node[15].wlan.mac 	"sent in TXOP " 	0
scalar scenarioPRJP1.node[15].wlan.mac 	"sentWithoutRetry AC 0" 	880
scalar scenarioPRJP1.node[15].wlan.mac 	"sentWithoutRetry AC 1" 	0
scalar scenarioPRJP1.node[15].wlan.mac 	"sentWithoutRetry AC 2" 	0
scalar scenarioPRJP1.node[15].wlan.mac 	"sentWithoutRetry AC 3" 	0
scalar scenarioPRJP1.node[15].wlan.mac 	"numGivenUp AC 0" 	2564
scalar scenarioPRJP1.node[15].wlan.mac 	"numGivenUp AC 1" 	0
scalar scenarioPRJP1.node[15].wlan.mac 	"numGivenUp AC 2" 	0
scalar scenarioPRJP1.node[15].wlan.mac 	"numGivenUp AC 3" 	0
scalar scenarioPRJP1.node[15].wlan.mac 	"numDropped AC 0" 	249
scalar scenarioPRJP1.node[15].wlan.mac 	"numDropped AC 1" 	0
scalar scenarioPRJP1.node[15].wlan.mac 	"numDropped AC 2" 	0
scalar scenarioPRJP1.node[15].wlan.mac 	"numDropped AC 3" 	0
scalar scenarioPRJP1.node[15].wlan.mac 	rcvdPkFromLL:count 	76404
attr interpolationmode  none
attr source  packetReceivedFromLower
attr title  "packets received from lower layer, count"
scalar scenarioPRJP1.node[15].wlan.mac 	rcvdPkFromLL:sum(packetBytes) 	17012326
attr interpolationmode  none
attr source  packetReceivedFromLower
attr title  "packets received from lower layer, sum(packetBytes)"
scalar scenarioPRJP1.node[15].wlan.mac 	sentDownPk:count 	36474
attr interpolationmode  none
attr source  packetSentToLower
attr title  "packets sent to lower layer, count"
scalar scenarioPRJP1.node[15].wlan.mac 	sentDownPk:sum(packetBytes) 	8257628
attr interpolationmode  none
attr source  packetSentToLower
attr title  "packets sent to lower layer, sum(packetBytes)"
scalar scenarioPRJP1.node[15].wlan.mac 	rcvdPkFromHL:count 	10973
attr interpolationmode  none
attr source  packetReceivedFromUpper
attr title  "packets received from higher layer, count"
scalar scenarioPRJP1.node[15].wlan.mac 	rcvdPkFromHL:sum(packetBytes) 	1943084
attr interpolationmode  none
attr source  packetReceivedFromUpper
attr title  "packets received from higher layer, sum(packetBytes)"
scalar scenarioPRJP1.node[15].wlan.mac 	passedUpPk:count 	14598
attr interpolationmode  none
attr source  packetSentToUpper
attr title  "packets passed to higher layer, count"
scalar scenarioPRJP1.node[15].wlan.mac 	passedUpPk:sum(packetBytes) 	1938416
attr interpolationmode  none
attr source  packetSentToUpper
attr title  "packets passed to higher layer, sum(packetBytes)"
[...]
scalar scenarioPRJP1.node[12].wlan.mac 	passedUpPk:count 	17840
attr interpolationmode  none
attr source  packetSentToUpper
attr title  "packets passed to higher layer, count"
scalar scenarioPRJP1.node[12].wlan.mac 	passedUpPk:sum(packetBytes) 	1864652
attr interpolationmode  none
attr source  packetSentToUpper
attr title  "packets passed to higher layer, sum(packetBytes)"
statistic scenarioPRJP1.node[12].wlan.radio 	radioChannel:histogram
field count 1
field mean 3
field stddev -nan
field sum 3
field sqrsum 9
field min 3
field max 3
attr interpolationmode  sample-hold
attr source  radioChannelChanged
attr title  "Radio channel, histogram"
bin	-INF	0
bin	2	0
bin	3	1
bin	4	0
scalar scenarioPRJP1.node[12].wlan.radio 	transmissionState:count 	98584
attr interpolationmode  sample-hold
attr source  transmissionStateChanged
attr title  "Radio transmission state, count"
scalar scenarioPRJP1.node[12].wlan.radio 	receptionState:count 	218953
attr interpolationmode  sample-hold
attr source  receptionStateChanged
attr title  "Radio reception state, count"
scalar scenarioPRJP1.node[12].wlan.radio 	radioMode:count 	49294
attr interpolationmode  sample-hold
attr source  radioModeChanged
attr title  "Radio mode, count"
statistic scenarioPRJP1.node[12].wlan.radio 	symbolErrorRate:histogram
field count 0
field mean -nan
field stddev -nan
field sum 0
field sqrsum 0
field min -nan
field max -nan
attr source  symbolErrorRate
attr title  "Symbol error rate, histogram"
bin	-INF	0
bin	-0.5	0
bin	-0.46666666666667	0
bin	-0.43333333333333	0
bin	-0.4	0
bin	-0.36666666666667	0
bin	-0.33333333333333	0
bin	-0.3	0
bin	-0.26666666666667	0
bin	-0.23333333333333	0
bin	-0.2	0
bin	-0.16666666666667	0
bin	-0.13333333333333	0
bin	-0.1	0
bin	-0.066666666666667	0
bin	-0.033333333333333	0
bin	0	0
bin	0.033333333333333	0
bin	0.066666666666667	0
bin	0.1	0
bin	0.13333333333333	0
bin	0.16666666666667	0
bin	0.2	0
bin	0.23333333333333	0
bin	0.26666666666667	0
bin	0.3	0
bin	0.33333333333333	0
bin	0.36666666666667	0
bin	0.4	0
bin	0.43333333333333	0
bin	0.46666666666667	0
bin	0.5	0
statistic scenarioPRJP1.node[12].wlan.radio 	bitErrorRate:histogram
field count 0
field mean -nan
field stddev -nan
field sum 0
field sqrsum 0
field min -nan
field max -nan
attr source  bitErrorRate
attr title  "Bit error rate, histogram"
bin	-INF	0
bin	-0.5	0
bin	-0.46666666666667	0
bin	-0.43333333333333	0
bin	-0.4	0
bin	-0.36666666666667	0
bin	-0.33333333333333	0
bin	-0.3	0
bin	-0.26666666666667	0
bin	-0.23333333333333	0
bin	-0.2	0
bin	-0.16666666666667	0
bin	-0.13333333333333	0
bin	-0.1	0
bin	-0.066666666666667	0
bin	-0.033333333333333	0
bin	0	0
bin	0.033333333333333	0
bin	0.066666666666667	0
bin	0.1	0
bin	0.13333333333333	0
bin	0.16666666666667	0
bin	0.2	0
bin	0.23333333333333	0
bin	0.26666666666667	0
bin	0.3	0
bin	0.33333333333333	0
bin	0.36666666666667	0
bin	0.4	0
bin	0.43333333333333	0
bin	0.46666666666667	0
bin	0.5	0
statistic scenarioPRJP1.node[12].wlan.radio 	packetErrorRate:histogram
field count 84521
field mean 0.071851734092312
field stddev 0.25257624617862
field sum 6072.9804172163
field sqrsum 5828.2873005847
field min 0
field max 1
attr source  packetErrorRate
attr title  "Packet error rate, histogram"
bin	-INF	0
bin	-0.5	0
bin	-0.43333333333333	0
bin	-0.36666666666667	0
bin	-0.3	0
bin	-0.23333333333333	0
bin	-0.16666666666667	0
bin	-0.1	0
bin	-0.033333333333333	77475
bin	0.033333333333333	368
bin	0.1	198
bin	0.16666666666667	152
bin	0.23333333333333	106
bin	0.3	77
bin	0.36666666666667	73
bin	0.43333333333333	64
bin	0.5	68
bin	0.56666666666667	72
bin	0.63333333333333	61
bin	0.7	53
bin	0.76666666666667	85
bin	0.83333333333333	105
bin	0.9	143
bin	0.96666666666667	5421
bin	1.0333333333333	0
bin	1.1	0
bin	1.1666666666667	0
bin	1.2333333333333	0
bin	1.3	0
bin	1.3666666666667	0
bin	1.4333333333333	0
bin	1.5	0
statistic scenarioPRJP1.node[12].wlan.radio 	minSNIR:histogram
field count 84521
field mean 25605.15787029
field stddev 116910.29318899
field sum 2164173548.3548
field sqrsum 1.2106347729211e+15
field min 0.0001687279656396
field max 919954.79839561
attr source  minSNIR
attr title  "Min SNIR, histogram"
bin	-INF	0
bin	-376225.2890771	0
bin	-326061.71563698	0
bin	-275898.14219686	0
bin	-225734.56875674	0
bin	-175570.99531661	0
bin	-125407.42187649	0
bin	-75243.848436368	0
bin	-25080.274996246	78375
bin	25083.298443877	1095
bin	75246.871883999	441
bin	125410.44532412	403
bin	175574.01876424	2046
bin	225737.59220437	20
bin	275901.16564449	53
bin	326064.73908461	22
bin	376228.31252474	36
bin	426391.88596486	34
bin	476555.45940498	34
bin	526719.0328451	6
bin	576882.60628523	12
bin	627046.17972535	17
bin	677209.75316547	119
bin	727373.32660559	1804
bin	777536.90004572	0
bin	827700.47348584	0
bin	877864.04692596	4
bin	928027.62036608	0
bin	978191.19380621	0
bin	1028354.7672463	0
bin	1078518.3406865	0
bin	1128681.9141266	0
scalar scenarioPRJP1.node[12].lo0.lo 	droppedPkBitError:count 	0
attr interpolationmode  none
attr source  dropPkBitError
attr title  "packets dropped/bit error, count"
scalar scenarioPRJP1.node[12].lo0.lo 	droppedPkBitError:sum(packetBytes) 	0
attr interpolationmode  none
attr source  dropPkBitError
attr title  "packets dropped/bit error, sum(packetBytes)"
scalar scenarioPRJP1.node[12].lo0.lo 	rcvdPkFromHL:count 	441
attr interpolationmode  none
attr source  packetReceivedFromUpper
attr title  "packets received from higher layer, count"
scalar scenarioPRJP1.node[12].lo0.lo 	rcvdPkFromHL:sum(packetBytes) 	229320
attr interpolationmode  none
attr source  packetReceivedFromUpper
attr title  "packets received from higher layer, sum(packetBytes)"
scalar scenarioPRJP1.node[12].lo0.lo 	passedUpPk:count 	441
attr interpolationmode  none
attr source  packetSentToUpper
attr title  "packets passed to higher layer, count"
scalar scenarioPRJP1.node[12].lo0.lo 	passedUpPk:sum(packetBytes) 	229320
attr interpolationmode  none
attr source  packetSentToUpper
attr title  "packets passed to higher layer, sum(packetBytes)"
scalar scenarioPRJP1.node[24].app 	"Total sent" 	2590
scalar scenarioPRJP1.node[24].app 	"Total received" 	337
scalar scenarioPRJP1.node[24].app 	"Total deleted" 	51
scalar scenarioPRJP1.node[24].app 	dropPk:count 	51
attr interpolationmode  none
attr source  dropPk
attr title  "packets dropped, count"
scalar scenarioPRJP1.node[24].app 	dropPk:sum(packetBytes) 	26112
attr interpolationmode  none
attr source  dropPk
attr title  "packets dropped, sum(packetBytes)"
scalar scenarioPRJP1.node[24].app 	outOfOrderPk:count 	14
attr interpolationmode  none
attr source  outOfOrderPk
attr title  "packets received out of order, count"
scalar scenarioPRJP1.node[24].app 	outOfOrderPk:sum(packetBytes) 	7168
attr interpolationmode  none
attr source  outOfOrderPk
attr title  "packets received out of order, sum(packetBytes)"
scalar scenarioPRJP1.node[24].app 	rcvdPk:count 	337
attr interpolationmode  none
attr source  rcvdPk
attr title  "packets received, count"
scalar scenarioPRJP1.node[24].app 	rcvdPk:sum(packetBytes) 	172544
attr interpolationmode  none
attr source  rcvdPk
attr title  "packets received, sum(packetBytes)"
statistic scenarioPRJP1.node[24].app 	endToEndDelay:histogram
field count 337
field mean 4.3439517218297
field stddev 6.154420199136
field sum 1463.9117302566
field sqrsum 19085.796245066
field min 0.000964034139
field max 19.913829483877
attr interpolationmode  none
attr source  messageAge(rcvdPk)
attr title  "delay, histogram"
attr unit  s
bin	-INF	0
bin	-9.9554486659655	0
bin	-8.6279251926392	0
bin	-7.3004017193128	0
bin	-5.9728782459865	0
bin	-4.6453547726602	0
bin	-3.3178312993338	0
bin	-1.9903078260075	0
bin	-0.66278435268117	173
bin	0.66473912064517	24
bin	1.9922625939715	17
bin	3.3197860672978	18
bin	4.6473095406242	11
bin	5.9748330139505	3
bin	7.3023564872768	18
bin	8.6298799606032	6
bin	9.9574034339295	8
bin	11.284926907256	5
bin	12.612450380582	9
bin	13.939973853909	8
bin	15.267497327235	13
bin	16.595020800561	6
bin	17.922544273887	10
bin	19.250067747214	8
bin	20.57759122054	0
bin	21.905114693867	0
bin	23.232638167193	0
bin	24.560161640519	0
bin	25.887685113845	0
bin	27.215208587172	0
bin	28.542732060498	0
bin	29.870255533824	0
scalar scenarioPRJP1.node[24].app 	sentPk:count 	2590
attr interpolationmode  none
attr source  sentPk
attr title  "packets sent, count"
scalar scenarioPRJP1.node[24].app 	sentPk:sum(packetBytes) 	1326080
attr interpolationmode  none
attr source  sentPk
attr title  "packets sent, sum(packetBytes)"
scalar scenarioPRJP1.node[24].udp 	droppedPkBadChecksum:count 	0
attr interpolationmode  none
attr title  "packets dropped (checksum error), count"
scalar scenarioPRJP1.node[24].udp 	droppedPkWrongPort:count 	0
attr interpolationmode  none
attr title  "packets dropped (wrong port), count"
scalar scenarioPRJP1.node[24].udp 	passedUpPk:count 	402
attr interpolationmode  none
attr title  "packets passed up, count"
scalar scenarioPRJP1.node[24].udp 	rcvdPk:count 	402
attr interpolationmode  none
attr source  rcvdPk
attr title  "packets received, count"
scalar scenarioPRJP1.node[24].udp 	rcvdPk:sum(packetBytes) 	209040
attr interpolationmode  none
attr source  rcvdPk
attr title  "packets received, sum(packetBytes)"
scalar scenarioPRJP1.node[24].udp 	sentPk:count 	2590
attr interpolationmode  none
attr source  sentPk
attr title  "packets sent, count"
scalar scenarioPRJP1.node[24].udp 	sentPk:sum(packetBytes) 	1346800
attr interpolationmode  none
attr source  sentPk
attr title  "packets sent, sum(packetBytes)"
scalar scenarioPRJP1.node[24].networkLayer.arp 	failedARPResolution:count 	0
attr title  "ARP failed resolutions, count"
scalar scenarioPRJP1.node[24].networkLayer.arp 	completedARPResolution:count 	74
attr title  "ARP completed resolutions, count"
scalar scenarioPRJP1.node[24].networkLayer.arp 	initiatedARPResolution:count 	28
attr title  "ARP initiated resolutions, count"
scalar scenarioPRJP1.node[24].networkLayer.arp 	sentReply:count 	12
attr title  "ARP replies sent, count"
scalar scenarioPRJP1.node[24].networkLayer.arp 	sentReq:count 	33
attr title  "ARP request sent, count"
scalar scenarioPRJP1.node[24].mobility 	startTime 	2.5
scalar scenarioPRJP1.node[24].mobility 	totalTime 	947.5
scalar scenarioPRJP1.node[24].mobility 	stopTime 	950
scalar scenarioPRJP1.node[24].mobility 	minSpeed 	2.4759222919823e-13
scalar scenarioPRJP1.node[24].mobility 	maxSpeed 	17.415417330822
scalar scenarioPRJP1.node[24].mobility 	totalDistance 	10736.339040938
scalar scenarioPRJP1.node[24].mobility 	totalCO2Emission 	2687.6647464108
scalar scenarioPRJP1.node[24].wlan.mgmt 	dataQueueLen:max 	4
attr interpolationmode  sample-hold
attr title  "data queue length, max"
scalar scenarioPRJP1.node[24].wlan.mgmt 	dataQueueLen:timeavg 	0
attr interpolationmode  sample-hold
attr title  "data queue length, timeavg"
scalar scenarioPRJP1.node[24].wlan.mgmt 	dropPkByQueue:count 	0
attr interpolationmode  none
attr source  dropPkByQueue
attr title  "packets dropped by queue, count"
scalar scenarioPRJP1.node[24].wlan.mgmt 	dropPkByQueue:sum(packetBytes) 	0
attr interpolationmode  none
attr source  dropPkByQueue
attr title  "packets dropped by queue, sum(packetBytes)"
scalar scenarioPRJP1.node[24].wlan.mac 	"number of received packets" 	5669
scalar scenarioPRJP1.node[24].wlan.mac 	"number of collisions" 	4596
scalar scenarioPRJP1.node[24].wlan.mac 	"number of internal collisions" 	0
scalar scenarioPRJP1.node[24].wlan.mac 	"number of retry for AC 0" 	7057
scalar scenarioPRJP1.node[24].wlan.mac 	"number of retry for AC 1" 	0
scalar scenarioPRJP1.node[24].wlan.mac 	"number of retry for AC 2" 	0
scalar scenarioPRJP1.node[24].wlan.mac 	"number of retry for AC 3" 	0
scalar scenarioPRJP1.node[24].wlan.mac 	"sent and received bits" 	5656832
scalar scenarioPRJP1.node[24].wlan.mac 	"sent packet within AC 0" 	765
scalar scenarioPRJP1.node[24].wlan.mac 	"sent packet within AC 1" 	0
scalar scenarioPRJP1.node[24].wlan.mac 	"sent packet within AC 2" 	0
scalar scenarioPRJP1.node[24].wlan.mac 	"sent packet within AC 3" 	0
scalar scenarioPRJP1.node[24].wlan.mac 	"sent in TXOP " 	0
scalar scenarioPRJP1.node[24].wlan.mac 	"sentWithoutRetry AC 0" 	725
scalar scenarioPRJP1.node[24].wlan.mac 	"sentWithoutRetry AC 1" 	0
scalar scenarioPRJP1.node[24].wlan.mac 	"sentWithoutRetry AC 2" 	0
scalar scenarioPRJP1.node[24].wlan.mac 	"sentWithoutRetry AC 3" 	0
scalar scenarioPRJP1.node[24].wlan.mac 	"numGivenUp AC 0" 	1162
scalar scenarioPRJP1.node[24].wlan.mac 	"numGivenUp AC 1" 	0
scalar scenarioPRJP1.node[24].wlan.mac 	"numGivenUp AC 2" 	0
scalar scenarioPRJP1.node[24].wlan.mac 	"numGivenUp AC 3" 	0
scalar scenarioPRJP1.node[24].wlan.mac 	"numDropped AC 0" 	0
scalar scenarioPRJP1.node[24].wlan.mac 	"numDropped AC 1" 	0
scalar scenarioPRJP1.node[24].wlan.mac 	"numDropped AC 2" 	0
scalar scenarioPRJP1.node[24].wlan.mac 	"numDropped AC 3" 	0
scalar scenarioPRJP1.node[24].wlan.mac 	rcvdPkFromLL:count 	57917
attr interpolationmode  none
attr source  packetReceivedFromLower
attr title  "packets received from lower layer, count"
scalar scenarioPRJP1.node[24].wlan.mac 	rcvdPkFromLL:sum(packetBytes) 	12755582
attr interpolationmode  none
attr source  packetReceivedFromLower
attr title  "packets received from lower layer, sum(packetBytes)"
scalar scenarioPRJP1.node[24].wlan.mac 	sentDownPk:count 	20820
attr interpolationmode  none
attr source  packetSentToLower
attr title  "packets sent to lower layer, count"
scalar scenarioPRJP1.node[24].wlan.mac 	sentDownPk:sum(packetBytes) 	3899490
attr interpolationmode  none
attr source  packetSentToLower
attr title  "packets sent to lower layer, sum(packetBytes)"
scalar scenarioPRJP1.node[24].wlan.mac 	rcvdPkFromHL:count 	8094
attr interpolationmode  none
attr source  packetReceivedFromUpper
attr title  "packets received from higher layer, count"
scalar scenarioPRJP1.node[24].wlan.mac 	rcvdPkFromHL:sum(packetBytes) 	1146764
attr interpolationmode  none
attr source  packetReceivedFromUpper
attr title  "packets received from higher layer, sum(packetBytes)"
scalar scenarioPRJP1.node[24].wlan.mac 	passedUpPk:count 	11669
attr interpolationmode  none
attr source  packetSentToUpper
attr title  "packets passed to higher layer, count"
scalar scenarioPRJP1.node[24].wlan.mac 	passedUpPk:sum(packetBytes) 	1288232
attr interpolationmode  none
attr source  packetSentToUpper
attr title  "packets passed to higher layer, sum(packetBytes)"
statistic scenarioPRJP1.node[24].wlan.radio 	radioChannel:histogram
field count 1
field mean 3
field stddev -nan
field sum 3
field sqrsum 9
field min 3
field max 3
attr interpolationmode  sample-hold
attr source  radioChannelChanged
attr title  "Radio channel, histogram"
bin	-INF	0
bin	2	0
bin	3	1
bin	4	0
scalar scenarioPRJP1.node[24].wlan.radio 	transmissionState:count 	83280
attr interpolationmode  sample-hold
attr source  transmissionStateChanged
attr title  "Radio transmission state, count"
scalar scenarioPRJP1.node[24].wlan.radio 	receptionState:count 	157879
attr interpolationmode  sample-hold
attr source  receptionStateChanged
attr title  "Radio reception state, count"
scalar scenarioPRJP1.node[24].wlan.radio 	radioMode:count 	41642
attr interpolationmode  sample-hold
attr source  radioModeChanged
attr title  "Radio mode, count"
statistic scenarioPRJP1.node[24].wlan.radio 	symbolErrorRate:histogram
field count 0
field mean -nan
field stddev -nan
field sum 0
field sqrsum 0
field min -nan
field max -nan
attr source  symbolErrorRate
attr title  "Symbol error rate, histogram"
bin	-INF	0
bin	-0.5	0
bin	-0.46666666666667	0
bin	-0.43333333333333	0
bin	-0.4	0
bin	-0.36666666666667	0
bin	-0.33333333333333	0
bin	-0.3	0
bin	-0.26666666666667	0
bin	-0.23333333333333	0
bin	-0.2	0
bin	-0.16666666666667	0
bin	-0.13333333333333	0
bin	-0.1	0
bin	-0.066666666666667	0
bin	-0.033333333333333	0
bin	0	0
bin	0.033333333333333	0
bin	0.066666666666667	0
bin	0.1	0
bin	0.13333333333333	0
bin	0.16666666666667	0
bin	0.2	0
bin	0.23333333333333	0
bin	0.26666666666667	0
bin	0.3	0
bin	0.33333333333333	0
bin	0.36666666666667	0
bin	0.4	0
bin	0.43333333333333	0
bin	0.46666666666667	0
bin	0.5	0
statistic scenarioPRJP1.node[24].wlan.radio 	bitErrorRate:histogram
field count 0
field mean -nan
field stddev -nan
field sum 0
field sqrsum 0
field min -nan
field max -nan
attr source  bitErrorRate
attr title  "Bit error rate, histogram"
bin	-INF	0
bin	-0.5	0
bin	-0.46666666666667	0
bin	-0.43333333333333	0
bin	-0.4	0
bin	-0.36666666666667	0
bin	-0.33333333333333	0
bin	-0.3	0
bin	-0.26666666666667	0
bin	-0.23333333333333	0
bin	-0.2	0
bin	-0.16666666666667	0
bin	-0.13333333333333	0
bin	-0.1	0
bin	-0.066666666666667	0
bin	-0.033333333333333	0
bin	0	0
bin	0.033333333333333	0
bin	0.066666666666667	0
bin	0.1	0
bin	0.13333333333333	0
bin	0.16666666666667	0
bin	0.2	0
bin	0.23333333333333	0
bin	0.26666666666667	0
bin	0.3	0
bin	0.33333333333333	0
bin	0.36666666666667	0
bin	0.4	0
bin	0.43333333333333	0
bin	0.46666666666667	0
bin	0.5	0
statistic scenarioPRJP1.node[24].wlan.radio 	packetErrorRate:histogram
field count 57917
field mean 0.074073930652007
field stddev 0.25610994980127
field sum 4290.1398415723
field sqrsum 4116.6315378335
field min 0
field max 1
attr source  packetErrorRate
attr title  "Packet error rate, histogram"
bin	-INF	0
bin	-0.5	0
bin	-0.43333333333333	0
bin	-0.36666666666667	0
bin	-0.3	0
bin	-0.23333333333333	0
bin	-0.16666666666667	0
bin	-0.1	0
bin	-0.033333333333333	52822
bin	0.033333333333333	403
bin	0.1	151
bin	0.16666666666667	92
bin	0.23333333333333	61
bin	0.3	68
bin	0.36666666666667	53
bin	0.43333333333333	38
bin	0.5	56
bin	0.56666666666667	33
bin	0.63333333333333	50
bin	0.7	42
bin	0.76666666666667	34
bin	0.83333333333333	54
bin	0.9	108
bin	0.96666666666667	3852
bin	1.0333333333333	0
bin	1.1	0
bin	1.1666666666667	0
bin	1.2333333333333	0
bin	1.3	0
bin	1.3666666666667	0
bin	1.4333333333333	0
bin	1.5	0
statistic scenarioPRJP1.node[24].wlan.radio 	minSNIR:histogram
field count 57917
field mean 14818.090635136
field stddev 205284.29485816
field sum 858219355.3152
field sqrsum 2.4533924937816e+15
field min 0.00027828849533513
field max 12121309.668356
attr source  minSNIR
attr title  "Min SNIR, histogram"
bin	-INF	0
bin	-376223.94782538	0
bin	-326060.43399644	0
bin	-275896.92016751	0
bin	-225733.40633857	0
bin	-175569.89250964	0
bin	-125406.3786807	0
bin	-75242.864851768	0
bin	-25079.351022834	55675
bin	25084.162806101	1083
bin	75247.676635036	256
bin	125411.19046397	112
bin	175574.70429291	111
bin	225738.21812184	7
bin	275901.73195077	13
bin	326065.24577971	0
bin	376228.75960864	4
bin	426392.27343758	1
bin	476555.78726651	2
bin	526719.30109545	10
bin	576882.81492438	16
bin	627046.32875332	15
bin	677209.84258225	67
bin	727373.35641119	482
bin	777536.87024012	2
bin	827700.38406906	8
bin	877863.89789799	0
bin	928027.41172693	0
bin	978190.92555586	0
bin	1028354.4393848	0
bin	1078517.9532137	0
bin	1128681.4670427	53
scalar scenarioPRJP1.node[24].lo0.lo 	droppedPkBitError:count 	0
attr interpolationmode  none
attr source  dropPkBitError
attr title  "packets dropped/bit error, count"
scalar scenarioPRJP1.node[24].lo0.lo 	droppedPkBitError:sum(packetBytes) 	0
attr interpolationmode  none
attr source  dropPkBitError
attr title  "packets dropped/bit error, sum(packetBytes)"
scalar scenarioPRJP1.node[24].lo0.lo 	rcvdPkFromHL:count 	402
attr interpolationmode  none
attr source  packetReceivedFromUpper
attr title  "packets received from higher layer, count"
scalar scenarioPRJP1.node[24].lo0.lo 	rcvdPkFromHL:sum(packetBytes) 	209040
attr interpolationmode  none
attr source  packetReceivedFromUpper
attr title  "packets received from higher layer, sum(packetBytes)"
scalar scenarioPRJP1.node[24].lo0.lo 	passedUpPk:count 	402
attr interpolationmode  none
attr source  packetSentToUpper
attr title  "packets passed to higher layer, count"
scalar scenarioPRJP1.node[24].lo0.lo 	passedUpPk:sum(packetBytes) 	209040
attr interpolationmode  none
attr source  packetSentToUpper
attr title  "packets passed to higher layer, sum(packetBytes)"
