version 2
run DYMOUM-FS-75-21-20150614-12:34:29-15169
attr configname DYMOUM-FS-75
attr datetime 20150614-12:34:29
attr experiment DYMOUM-FS-75
attr inifile omnetpp.ini
attr iterationvars ""
attr iterationvars2 $repetition=21
attr measurement ""
attr network Prj_Part1_propag.scenarioPRJP1
attr processid 15169
attr repetition 21
attr replication #21
attr resultdir results
attr runnumber 21
attr seedset 21

scalar scenarioPRJP1.node[73].app 	"Total sent" 	4645
scalar scenarioPRJP1.node[73].app 	"Total received" 	966
scalar scenarioPRJP1.node[73].app 	"Total deleted" 	129
scalar scenarioPRJP1.node[73].app 	dropPk:count 	129
attr interpolationmode  none
attr source  dropPk
attr title  "packets dropped, count"
scalar scenarioPRJP1.node[73].app 	dropPk:sum(packetBytes) 	66048
attr interpolationmode  none
attr source  dropPk
attr title  "packets dropped, sum(packetBytes)"
scalar scenarioPRJP1.node[73].app 	outOfOrderPk:count 	2
attr interpolationmode  none
attr source  outOfOrderPk
attr title  "packets received out of order, count"
scalar scenarioPRJP1.node[73].app 	outOfOrderPk:sum(packetBytes) 	1024
attr interpolationmode  none
attr source  outOfOrderPk
attr title  "packets received out of order, sum(packetBytes)"
scalar scenarioPRJP1.node[73].app 	rcvdPk:count 	966
attr interpolationmode  none
attr source  rcvdPk
attr title  "packets received, count"
scalar scenarioPRJP1.node[73].app 	rcvdPk:sum(packetBytes) 	494592
attr interpolationmode  none
attr source  rcvdPk
attr title  "packets received, sum(packetBytes)"
statistic scenarioPRJP1.node[73].app 	endToEndDelay:histogram
field count 966
field mean 4.4114586464239
field stddev 5.5539168355058
field sum 4261.4690524455
field sqrsum 48565.676986044
field min 0.000891101922
field max 19.989648555448
attr interpolationmode  none
attr source  messageAge(rcvdPk)
attr title  "delay, histogram"
attr unit  s
bin	-INF	0
bin	-9.5726743975795	0
bin	-8.2961929653566	0
bin	-7.0197115331338	0
bin	-5.7432301009109	0
bin	-4.466748668688	0
bin	-3.1902672364652	0
bin	-1.9137858042423	0
bin	-0.63730437201943	413
bin	0.63917706020343	79
bin	1.9156584924263	74
bin	3.1921399246492	60
bin	4.468621356872	37
bin	5.7451027890949	54
bin	7.0215842213178	32
bin	8.2980656535406	26
bin	9.5745470857635	32
bin	10.851028517986	27
bin	12.127509950209	23
bin	13.403991382432	23
bin	14.680472814655	26
bin	15.956954246878	24
bin	17.233435679101	20
bin	18.509917111324	13
bin	19.786398543546	3
bin	21.062879975769	0
bin	22.339361407992	0
bin	23.615842840215	0
bin	24.892324272438	0
bin	26.168805704661	0
bin	27.445287136884	0
bin	28.721768569107	0
scalar scenarioPRJP1.node[73].app 	sentPk:count 	4645
attr interpolationmode  none
attr source  sentPk
attr title  "packets sent, count"
scalar scenarioPRJP1.node[73].app 	sentPk:sum(packetBytes) 	2378240
attr interpolationmode  none
attr source  sentPk
attr title  "packets sent, sum(packetBytes)"
scalar scenarioPRJP1.node[73].udp 	droppedPkBadChecksum:count 	0
attr interpolationmode  none
attr title  "packets dropped (checksum error), count"
scalar scenarioPRJP1.node[73].udp 	droppedPkWrongPort:count 	0
attr interpolationmode  none
attr title  "packets dropped (wrong port), count"
scalar scenarioPRJP1.node[73].udp 	passedUpPk:count 	1097
attr interpolationmode  none
attr title  "packets passed up, count"
scalar scenarioPRJP1.node[73].udp 	rcvdPk:count 	1097
attr interpolationmode  none
attr source  rcvdPk
attr title  "packets received, count"
scalar scenarioPRJP1.node[73].udp 	rcvdPk:sum(packetBytes) 	570440
attr interpolationmode  none
attr source  rcvdPk
attr title  "packets received, sum(packetBytes)"
scalar scenarioPRJP1.node[73].udp 	sentPk:count 	4645
attr interpolationmode  none
attr source  sentPk
attr title  "packets sent, count"
scalar scenarioPRJP1.node[73].udp 	sentPk:sum(packetBytes) 	2415400
attr interpolationmode  none
attr source  sentPk
attr title  "packets sent, sum(packetBytes)"
scalar scenarioPRJP1.node[73].networkLayer.arp 	failedARPResolution:count 	20
attr title  "ARP failed resolutions, count"
scalar scenarioPRJP1.node[73].networkLayer.arp 	completedARPResolution:count 	1200
attr title  "ARP completed resolutions, count"
scalar scenarioPRJP1.node[73].networkLayer.arp 	initiatedARPResolution:count 	139
attr title  "ARP initiated resolutions, count"
scalar scenarioPRJP1.node[73].networkLayer.arp 	sentReply:count 	103
attr title  "ARP replies sent, count"
scalar scenarioPRJP1.node[73].networkLayer.arp 	sentReq:count 	254
attr title  "ARP request sent, count"
scalar scenarioPRJP1.node[73].manetrouting 	"simulated time" 	1664.1
scalar scenarioPRJP1.node[73].manetrouting 	"Dymo totalSend " 	4492499
scalar scenarioPRJP1.node[73].manetrouting 	"Dymo Rreq send" 	2439580
scalar scenarioPRJP1.node[73].manetrouting 	"Dymo Rreq rec" 	1981738
scalar scenarioPRJP1.node[73].manetrouting 	"Dymo Rrep send" 	11799
scalar scenarioPRJP1.node[73].manetrouting 	"Dymo Rrep rec" 	7650
scalar scenarioPRJP1.node[73].manetrouting 	"Dymo Rerr send" 	20297
scalar scenarioPRJP1.node[73].manetrouting 	"Dymo Rerr rec" 	64458
scalar scenarioPRJP1.node[73].mobility 	startTime 	7.4
scalar scenarioPRJP1.node[73].mobility 	totalTime 	1656.6
scalar scenarioPRJP1.node[73].mobility 	stopTime 	1664.1
scalar scenarioPRJP1.node[73].mobility 	minSpeed 	2.4756157449627e-13
scalar scenarioPRJP1.node[73].mobility 	maxSpeed 	16.517941115459
scalar scenarioPRJP1.node[73].mobility 	totalDistance 	18202.664908976
scalar scenarioPRJP1.node[73].mobility 	totalCO2Emission 	4376.9688267214
scalar scenarioPRJP1.node[73].wlan.mgmt 	dataQueueLen:max 	97
attr interpolationmode  sample-hold
attr title  "data queue length, max"
scalar scenarioPRJP1.node[73].wlan.mgmt 	dataQueueLen:timeavg 	0.0025840896741432
attr interpolationmode  sample-hold
attr title  "data queue length, timeavg"
scalar scenarioPRJP1.node[73].wlan.mgmt 	dropPkByQueue:count 	0
attr interpolationmode  none
attr source  dropPkByQueue
attr title  "packets dropped by queue, count"
scalar scenarioPRJP1.node[73].wlan.mgmt 	dropPkByQueue:sum(packetBytes) 	0
attr interpolationmode  none
attr source  dropPkByQueue
attr title  "packets dropped by queue, sum(packetBytes)"
scalar scenarioPRJP1.node[73].wlan.mac 	"number of received packets" 	7293
scalar scenarioPRJP1.node[73].wlan.mac 	"number of collisions" 	105958
scalar scenarioPRJP1.node[73].wlan.mac 	"number of internal collisions" 	0
scalar scenarioPRJP1.node[73].wlan.mac 	"number of retry for AC 0" 	18608
scalar scenarioPRJP1.node[73].wlan.mac 	"number of retry for AC 1" 	10
scalar scenarioPRJP1.node[73].wlan.mac 	"number of retry for AC 2" 	0
scalar scenarioPRJP1.node[73].wlan.mac 	"number of retry for AC 3" 	0
scalar scenarioPRJP1.node[73].wlan.mac 	"sent and received bits" 	62341160
scalar scenarioPRJP1.node[73].wlan.mac 	"sent packet within AC 0" 	6715
scalar scenarioPRJP1.node[73].wlan.mac 	"sent packet within AC 1" 	4
scalar scenarioPRJP1.node[73].wlan.mac 	"sent packet within AC 2" 	0
scalar scenarioPRJP1.node[73].wlan.mac 	"sent packet within AC 3" 	0
scalar scenarioPRJP1.node[73].wlan.mac 	"sent in TXOP " 	0
scalar scenarioPRJP1.node[73].wlan.mac 	"sentWithoutRetry AC 0" 	4468
scalar scenarioPRJP1.node[73].wlan.mac 	"sentWithoutRetry AC 1" 	2
scalar scenarioPRJP1.node[73].wlan.mac 	"sentWithoutRetry AC 2" 	0
scalar scenarioPRJP1.node[73].wlan.mac 	"sentWithoutRetry AC 3" 	0
scalar scenarioPRJP1.node[73].wlan.mac 	"numGivenUp AC 0" 	1994
scalar scenarioPRJP1.node[73].wlan.mac 	"numGivenUp AC 1" 	1
scalar scenarioPRJP1.node[73].wlan.mac 	"numGivenUp AC 2" 	0
scalar scenarioPRJP1.node[73].wlan.mac 	"numGivenUp AC 3" 	0
scalar scenarioPRJP1.node[73].wlan.mac 	"numDropped AC 0" 	26
scalar scenarioPRJP1.node[73].wlan.mac 	"numDropped AC 1" 	0
scalar scenarioPRJP1.node[73].wlan.mac 	"numDropped AC 2" 	0
scalar scenarioPRJP1.node[73].wlan.mac 	"numDropped AC 3" 	0
scalar scenarioPRJP1.node[73].wlan.mac 	rcvdPkFromLL:count 	301916
attr interpolationmode  none
attr source  packetReceivedFromLower
attr title  "packets received from lower layer, count"
scalar scenarioPRJP1.node[73].wlan.mac 	rcvdPkFromLL:sum(packetBytes) 	98886862
attr interpolationmode  none
attr source  packetReceivedFromLower
attr title  "packets received from lower layer, sum(packetBytes)"
scalar scenarioPRJP1.node[73].wlan.mac 	sentDownPk:count 	59496
attr interpolationmode  none
attr source  packetSentToLower
attr title  "packets sent to lower layer, count"
scalar scenarioPRJP1.node[73].wlan.mac 	sentDownPk:sum(packetBytes) 	19547269
attr interpolationmode  none
attr source  packetSentToLower
attr title  "packets sent to lower layer, sum(packetBytes)"
scalar scenarioPRJP1.node[73].wlan.mac 	rcvdPkFromHL:count 	33611
attr interpolationmode  none
attr source  packetReceivedFromUpper
attr title  "packets received from higher layer, count"
scalar scenarioPRJP1.node[73].wlan.mac 	rcvdPkFromHL:sum(packetBytes) 	8939076
attr interpolationmode  none
attr source  packetReceivedFromUpper
attr title  "packets received from higher layer, sum(packetBytes)"
scalar scenarioPRJP1.node[73].wlan.mac 	passedUpPk:count 	94338
attr interpolationmode  none
attr source  packetSentToUpper
attr title  "packets passed to higher layer, count"
scalar scenarioPRJP1.node[73].wlan.mac 	passedUpPk:sum(packetBytes) 	18121704
attr interpolationmode  none
attr source  packetSentToUpper
attr title  "packets passed to higher layer, sum(packetBytes)"
statistic scenarioPRJP1.node[73].wlan.radio 	radioChannel:histogram
field count 1
field mean 3
field stddev -nan
field sum 3
field sqrsum 9
field min 3
field max 3
attr interpolationmode  sample-hold
attr source  radioChannelChanged
attr title  "Radio channel, histogram"
bin	-INF	0
bin	2	0
bin	3	1
bin	4	0
scalar scenarioPRJP1.node[73].wlan.radio 	transmissionState:count 	237984
attr interpolationmode  sample-hold
attr source  transmissionStateChanged
attr title  "Radio transmission state, count"
scalar scenarioPRJP1.node[73].wlan.radio 	receptionState:count 	1533313
attr interpolationmode  sample-hold
attr source  receptionStateChanged
attr title  "Radio reception state, count"
scalar scenarioPRJP1.node[73].wlan.radio 	radioMode:count 	118994
attr interpolationmode  sample-hold
attr source  radioModeChanged
attr title  "Radio mode, count"
statistic scenarioPRJP1.node[73].wlan.radio 	symbolErrorRate:histogram
field count 0
field mean -nan
field stddev -nan
field sum 0
field sqrsum 0
field min -nan
field max -nan
attr source  symbolErrorRate
attr title  "Symbol error rate, histogram"
bin	-INF	0
bin	-0.5	0
bin	-0.46666666666667	0
bin	-0.43333333333333	0
bin	-0.4	0
bin	-0.36666666666667	0
bin	-0.33333333333333	0
bin	-0.3	0
bin	-0.26666666666667	0
bin	-0.23333333333333	0
bin	-0.2	0
bin	-0.16666666666667	0
bin	-0.13333333333333	0
bin	-0.1	0
bin	-0.066666666666667	0
bin	-0.033333333333333	0
bin	0	0
bin	0.033333333333333	0
bin	0.066666666666667	0
bin	0.1	0
bin	0.13333333333333	0
bin	0.16666666666667	0
bin	0.2	0
bin	0.23333333333333	0
bin	0.26666666666667	0
bin	0.3	0
bin	0.33333333333333	0
bin	0.36666666666667	0
bin	0.4	0
bin	0.43333333333333	0
bin	0.46666666666667	0
bin	0.5	0
statistic scenarioPRJP1.node[73].wlan.radio 	bitErrorRate:histogram
field count 0
field mean -nan
field stddev -nan
field sum 0
field sqrsum 0
field min -nan
field max -nan
attr source  bitErrorRate
attr title  "Bit error rate, histogram"
bin	-INF	0
bin	-0.5	0
bin	-0.46666666666667	0
bin	-0.43333333333333	0
bin	-0.4	0
bin	-0.36666666666667	0
bin	-0.33333333333333	0
bin	-0.3	0
bin	-0.26666666666667	0
bin	-0.23333333333333	0
bin	-0.2	0
bin	-0.16666666666667	0
bin	-0.13333333333333	0
bin	-0.1	0
bin	-0.066666666666667	0
bin	-0.033333333333333	0
bin	0	0
bin	0.033333333333333	0
bin	0.066666666666667	0
bin	0.1	0
bin	0.13333333333333	0
bin	0.16666666666667	0
bin	0.2	0
bin	0.23333333333333	0
bin	0.26666666666667	0
bin	0.3	0
bin	0.33333333333333	0
bin	0.36666666666667	0
bin	0.4	0
bin	0.43333333333333	0
bin	0.46666666666667	0
bin	0.5	0
statistic scenarioPRJP1.node[73].wlan.radio 	packetErrorRate:histogram
field count 301916
field mean 0.31648414133649
field stddev 0.45319565501031
field sum 95551.626015747
field sqrsum 92249.779596759
field min 0
field max 1
attr source  packetErrorRate
attr title  "Packet error rate, histogram"
bin	-INF	0
bin	-0.5	0
bin	-0.43333333333333	0
bin	-0.36666666666667	0
bin	-0.3	0
bin	-0.23333333333333	0
bin	-0.16666666666667	0
bin	-0.1	0
bin	-0.033333333333333	193017
bin	0.033333333333333	5304
bin	0.1	2710
bin	0.16666666666667	1777
bin	0.23333333333333	1386
bin	0.3	1166
bin	0.36666666666667	1061
bin	0.43333333333333	886
bin	0.5	932
bin	0.56666666666667	888
bin	0.63333333333333	877
bin	0.7	899
bin	0.76666666666667	1079
bin	0.83333333333333	1157
bin	0.9	1709
bin	0.96666666666667	87068
bin	1.0333333333333	0
bin	1.1	0
bin	1.1666666666667	0
bin	1.2333333333333	0
bin	1.3	0
bin	1.3666666666667	0
bin	1.4333333333333	0
bin	1.5	0
statistic scenarioPRJP1.node[73].wlan.radio 	minSNIR:histogram
field count 301916
field mean 1774.9937397859
field stddev 45393.23319925
field sum 535899009.94121
field sqrsum 6.2306084833509e+14
field min 0.00014663333371733
field max 3012958.8769375
attr source  minSNIR
attr title  "Min SNIR, histogram"
bin	-INF	0
bin	-140677.80349414	0
bin	-121920.71360003	0
bin	-103163.62370593	0
bin	-84406.53381182	0
bin	-65649.443917714	0
bin	-46892.354023608	0
bin	-28135.264129502	0
bin	-9378.1742353955	297933
bin	9378.9156587108	2273
bin	28136.005552817	399
bin	46893.095446923	322
bin	65650.185341029	201
bin	84407.275235136	173
bin	103164.36512924	66
bin	121921.45502335	56
bin	140678.54491745	44
bin	159435.63481156	26
bin	178192.72470567	27
bin	196949.81459977	12
bin	215706.90449388	15
bin	234463.99438799	29
bin	253221.08428209	10
bin	271978.1741762	16
bin	290735.2640703	6
bin	309492.35396441	8
bin	328249.44385852	16
bin	347006.53375262	6
bin	365763.62364673	9
bin	384520.71354084	5
bin	403277.80343494	8
bin	422034.89332905	256
scalar scenarioPRJP1.node[73].lo0.lo 	droppedPkBitError:count 	0
attr interpolationmode  none
attr source  dropPkBitError
attr title  "packets dropped/bit error, count"
scalar scenarioPRJP1.node[73].lo0.lo 	droppedPkBitError:sum(packetBytes) 	0
attr interpolationmode  none
attr source  dropPkBitError
attr title  "packets dropped/bit error, sum(packetBytes)"
scalar scenarioPRJP1.node[73].lo0.lo 	rcvdPkFromHL:count 	0
attr interpolationmode  none
attr source  packetReceivedFromUpper
attr title  "packets received from higher layer, count"
scalar scenarioPRJP1.node[73].lo0.lo 	rcvdPkFromHL:sum(packetBytes) 	0
attr interpolationmode  none
attr source  packetReceivedFromUpper
attr title  "packets received from higher layer, sum(packetBytes)"
scalar scenarioPRJP1.node[73].lo0.lo 	passedUpPk:count 	0
attr interpolationmode  none
attr source  packetSentToUpper
attr title  "packets passed to higher layer, count"
scalar scenarioPRJP1.node[73].lo0.lo 	passedUpPk:sum(packetBytes) 	0
attr interpolationmode  none
attr source  packetSentToUpper
attr title  "packets passed to higher layer, sum(packetBytes)"
scalar scenarioPRJP1.node[60].app 	"Total sent" 	4888
scalar scenarioPRJP1.node[60].app 	"Total received" 	0
scalar scenarioPRJP1.node[60].app 	"Total deleted" 	0
scalar scenarioPRJP1.node[60].app 	dropPk:count 	0
attr interpolationmode  none
attr source  dropPk
attr title  "packets dropped, count"
scalar scenarioPRJP1.node[60].app 	dropPk:sum(packetBytes) 	0
attr interpolationmode  none
attr source  dropPk
attr title  "packets dropped, sum(packetBytes)"
scalar scenarioPRJP1.node[60].app 	outOfOrderPk:count 	0
attr interpolationmode  none
attr source  outOfOrderPk
attr title  "packets received out of order, count"
scalar scenarioPRJP1.node[60].app 	outOfOrderPk:sum(packetBytes) 	0
attr interpolationmode  none
attr source  outOfOrderPk
attr title  "packets received out of order, sum(packetBytes)"
scalar scenarioPRJP1.node[60].app 	rcvdPk:count 	0
attr interpolationmode  none
attr source  rcvdPk
attr title  "packets received, count"
scalar scenarioPRJP1.node[60].app 	rcvdPk:sum(packetBytes) 	0
attr interpolationmode  none
attr source  rcvdPk
attr title  "packets received, sum(packetBytes)"
statistic scenarioPRJP1.node[60].app 	endToEndDelay:histogram
field count 0
field mean -nan
field stddev -nan
field sum 0
field sqrsum 0
field min -nan
field max -nan
attr interpolationmode  none
attr source  messageAge(rcvdPk)
attr title  "delay, histogram"
attr unit  s
bin	-INF	0
bin	-0.5	0
bin	-0.46666666666667	0
bin	-0.43333333333333	0
bin	-0.4	0
bin	-0.36666666666667	0
bin	-0.33333333333333	0
bin	-0.3	0
bin	-0.26666666666667	0
bin	-0.23333333333333	0
bin	-0.2	0
bin	-0.16666666666667	0
bin	-0.13333333333333	0
bin	-0.1	0
bin	-0.066666666666667	0
bin	-0.033333333333333	0
bin	0	0
bin	0.033333333333333	0
bin	0.066666666666667	0
bin	0.1	0
bin	0.13333333333333	0
bin	0.16666666666667	0
bin	0.2	0
bin	0.23333333333333	0
bin	0.26666666666667	0
bin	0.3	0
bin	0.33333333333333	0
bin	0.36666666666667	0
bin	0.4	0
bin	0.43333333333333	0
bin	0.46666666666667	0
bin	0.5	0
scalar scenarioPRJP1.node[60].app 	sentPk:count 	4888
attr interpolationmode  none
attr source  sentPk
attr title  "packets sent, count"
scalar scenarioPRJP1.node[60].app 	sentPk:sum(packetBytes) 	2502656
attr interpolationmode  none
attr source  sentPk
attr title  "packets sent, sum(packetBytes)"
scalar scenarioPRJP1.node[60].udp 	droppedPkBadChecksum:count 	0
attr interpolationmode  none
attr title  "packets dropped (checksum error), count"
scalar scenarioPRJP1.node[60].udp 	droppedPkWrongPort:count 	0
attr interpolationmode  none
attr title  "packets dropped (wrong port), count"
scalar scenarioPRJP1.node[60].udp 	passedUpPk:count 	0
attr interpolationmode  none
attr title  "packets passed up, count"
scalar scenarioPRJP1.node[60].udp 	rcvdPk:count 	0
attr interpolationmode  none
attr source  rcvdPk
attr title  "packets received, count"
scalar scenarioPRJP1.node[60].udp 	rcvdPk:sum(packetBytes) 	0
attr interpolationmode  none
attr source  rcvdPk
attr title  "packets received, sum(packetBytes)"
scalar scenarioPRJP1.node[60].udp 	sentPk:count 	4888
attr interpolationmode  none
attr source  sentPk
attr title  "packets sent, count"
scalar scenarioPRJP1.node[60].udp 	sentPk:sum(packetBytes) 	2541760
attr interpolationmode  none
attr source  sentPk
attr title  "packets sent, sum(packetBytes)"
scalar scenarioPRJP1.node[60].networkLayer.arp 	failedARPResolution:count 	27
attr title  "ARP failed resolutions, count"
scalar scenarioPRJP1.node[60].networkLayer.arp 	completedARPResolution:count 	1359
attr title  "ARP completed resolutions, count"
scalar scenarioPRJP1.node[60].networkLayer.arp 	initiatedARPResolution:count 	177
attr title  "ARP initiated resolutions, count"
scalar scenarioPRJP1.node[60].networkLayer.arp 	sentReply:count 	82
attr title  "ARP replies sent, count"
scalar scenarioPRJP1.node[60].networkLayer.arp 	sentReq:count 	305
attr title  "ARP request sent, count"
scalar scenarioPRJP1.node[60].mobility 	startTime 	7.2
scalar scenarioPRJP1.node[60].mobility 	totalTime 	1748.8
scalar scenarioPRJP1.node[60].mobility 	stopTime 	1756.1
scalar scenarioPRJP1.node[60].mobility 	minSpeed 	2.4754420903694e-13
scalar scenarioPRJP1.node[60].mobility 	maxSpeed 	20.647379756959
scalar scenarioPRJP1.node[60].mobility 	totalDistance 	18230.466347687
scalar scenarioPRJP1.node[60].mobility 	totalCO2Emission 	5192.6649834341
scalar scenarioPRJP1.node[60].wlan.mgmt 	dataQueueLen:max 	37
attr interpolationmode  sample-hold
attr title  "data queue length, max"
scalar scenarioPRJP1.node[60].wlan.mgmt 	dataQueueLen:timeavg 	0
attr interpolationmode  sample-hold
attr title  "data queue length, timeavg"
scalar scenarioPRJP1.node[60].wlan.mgmt 	dropPkByQueue:count 	0
attr interpolationmode  none
attr source  dropPkByQueue
attr title  "packets dropped by queue, count"
scalar scenarioPRJP1.node[60].wlan.mgmt 	dropPkByQueue:sum(packetBytes) 	0
attr interpolationmode  none
attr source  dropPkByQueue
attr title  "packets dropped by queue, sum(packetBytes)"
scalar scenarioPRJP1.node[60].wlan.mac 	"number of received packets" 	7059
scalar scenarioPRJP1.node[60].wlan.mac 	"number of collisions" 	118364
scalar scenarioPRJP1.node[60].wlan.mac 	"number of internal collisions" 	0
scalar scenarioPRJP1.node[60].wlan.mac 	"number of retry for AC 0" 	19881
scalar scenarioPRJP1.node[60].wlan.mac 	"number of retry for AC 1" 	0
scalar scenarioPRJP1.node[60].wlan.mac 	"number of retry for AC 2" 	0
scalar scenarioPRJP1.node[60].wlan.mac 	"number of retry for AC 3" 	0
scalar scenarioPRJP1.node[60].wlan.mac 	"sent and received bits" 	71728304
scalar scenarioPRJP1.node[60].wlan.mac 	"sent packet within AC 0" 	7794
scalar scenarioPRJP1.node[60].wlan.mac 	"sent packet within AC 1" 	3
scalar scenarioPRJP1.node[60].wlan.mac 	"sent packet within AC 2" 	0
scalar scenarioPRJP1.node[60].wlan.mac 	"sent packet within AC 3" 	0
scalar scenarioPRJP1.node[60].wlan.mac 	"sent in TXOP " 	0
scalar scenarioPRJP1.node[60].wlan.mac 	"sentWithoutRetry AC 0" 	5211
scalar scenarioPRJP1.node[60].wlan.mac 	"sentWithoutRetry AC 1" 	3
scalar scenarioPRJP1.node[60].wlan.mac 	"sentWithoutRetry AC 2" 	0
scalar scenarioPRJP1.node[60].wlan.mac 	"sentWithoutRetry AC 3" 	0
scalar scenarioPRJP1.node[60].wlan.mac 	"numGivenUp AC 0" 	2119
scalar scenarioPRJP1.node[60].wlan.mac 	"numGivenUp AC 1" 	0
scalar scenarioPRJP1.node[60].wlan.mac 	"numGivenUp AC 2" 	0
scalar scenarioPRJP1.node[60].wlan.mac 	"numGivenUp AC 3" 	0
scalar scenarioPRJP1.node[60].wlan.mac 	"numDropped AC 0" 	1
scalar scenarioPRJP1.node[60].wlan.mac 	"numDropped AC 1" 	0
scalar scenarioPRJP1.node[60].wlan.mac 	"numDropped AC 2" 	0
scalar scenarioPRJP1.node[60].wlan.mac 	"numDropped AC 3" 	0
scalar scenarioPRJP1.node[60].wlan.mac 	rcvdPkFromLL:count 	370362
attr interpolationmode  none
attr source  packetReceivedFromLower
attr title  "packets received from lower layer, count"
scalar scenarioPRJP1.node[60].wlan.mac 	rcvdPkFromLL:sum(packetBytes) 	122503272
attr interpolationmode  none
attr source  packetReceivedFromLower
attr title  "packets received from lower layer, sum(packetBytes)"
scalar scenarioPRJP1.node[60].wlan.mac 	sentDownPk:count 	64962
attr interpolationmode  none
attr source  packetSentToLower
attr title  "packets sent to lower layer, count"
scalar scenarioPRJP1.node[60].wlan.mac 	sentDownPk:sum(packetBytes) 	21619834
attr interpolationmode  none
attr source  packetSentToLower
attr title  "packets sent to lower layer, sum(packetBytes)"
scalar scenarioPRJP1.node[60].wlan.mac 	rcvdPkFromHL:count 	38023
attr interpolationmode  none
attr source  packetReceivedFromUpper
attr title  "packets received from higher layer, count"
scalar scenarioPRJP1.node[60].wlan.mac 	rcvdPkFromHL:sum(packetBytes) 	10180073
attr interpolationmode  none
attr source  packetReceivedFromUpper
attr title  "packets received from higher layer, sum(packetBytes)"
scalar scenarioPRJP1.node[60].wlan.mac 	passedUpPk:count 	118734
attr interpolationmode  none
attr source  packetSentToUpper
attr title  "packets passed to higher layer, count"
scalar scenarioPRJP1.node[60].wlan.mac 	passedUpPk:sum(packetBytes) 	21770278
attr interpolationmode  none
attr source  packetSentToUpper
attr title  "packets passed to higher layer, sum(packetBytes)"
statistic scenarioPRJP1.node[60].wlan.radio 	radioChannel:histogram
field count 1
field mean 3
field stddev -nan
field sum 3
field sqrsum 9
field min 3
field max 3
attr interpolationmode  sample-hold
attr source  radioChannelChanged
attr title  "Radio channel, histogram"
bin	-INF	0
bin	2	0
bin	3	1
bin	4	0
scalar scenarioPRJP1.node[60].wlan.radio 	transmissionState:count 	259848
attr interpolationmode  sample-hold
attr source  transmissionStateChanged
attr title  "Radio transmission state, count"
scalar scenarioPRJP1.node[60].wlan.radio 	receptionState:count 	1754425
attr interpolationmode  sample-hold
attr source  receptionStateChanged
attr title  "Radio reception state, count"
scalar scenarioPRJP1.node[60].wlan.radio 	radioMode:count 	129926
attr interpolationmode  sample-hold
attr source  radioModeChanged
attr title  "Radio mode, count"
statistic scenarioPRJP1.node[60].wlan.radio 	symbolErrorRate:histogram
field count 0
field mean -nan
field stddev -nan
field sum 0
field sqrsum 0
field min -nan
field max -nan
attr source  symbolErrorRate
attr title  "Symbol error rate, histogram"
bin	-INF	0
bin	-0.5	0
bin	-0.46666666666667	0
bin	-0.43333333333333	0
bin	-0.4	0
bin	-0.36666666666667	0
bin	-0.33333333333333	0
bin	-0.3	0
bin	-0.26666666666667	0
bin	-0.23333333333333	0
bin	-0.2	0
bin	-0.16666666666667	0
bin	-0.13333333333333	0
bin	-0.1	0
bin	-0.066666666666667	0
bin	-0.033333333333333	0
bin	0	0
bin	0.033333333333333	0
bin	0.066666666666667	0
bin	0.1	0
bin	0.13333333333333	0
bin	0.16666666666667	0
bin	0.2	0
bin	0.23333333333333	0
bin	0.26666666666667	0
bin	0.3	0
bin	0.33333333333333	0
bin	0.36666666666667	0
bin	0.4	0
bin	0.43333333333333	0
bin	0.46666666666667	0
bin	0.5	0
statistic scenarioPRJP1.node[60].wlan.radio 	bitErrorRate:histogram
field count 0
field mean -nan
field stddev -nan
field sum 0
field sqrsum 0
field min -nan
field max -nan
attr source  bitErrorRate
attr title  "Bit error rate, histogram"
bin	-INF	0
bin	-0.5	0
bin	-0.46666666666667	0
bin	-0.43333333333333	0
bin	-0.4	0
bin	-0.36666666666667	0
bin	-0.33333333333333	0
bin	-0.3	0
bin	-0.26666666666667	0
bin	-0.23333333333333	0
bin	-0.2	0
bin	-0.16666666666667	0
bin	-0.13333333333333	0
bin	-0.1	0
bin	-0.066666666666667	0
bin	-0.033333333333333	0
bin	0	0
bin	0.033333333333333	0
bin	0.066666666666667	0
bin	0.1	0
bin	0.13333333333333	0
bin	0.16666666666667	0
bin	0.2	0
bin	0.23333333333333	0
bin	0.26666666666667	0
bin	0.3	0
bin	0.33333333333333	0
bin	0.36666666666667	0
bin	0.4	0
bin	0.43333333333333	0
bin	0.46666666666667	0
bin	0.5	0
statistic scenarioPRJP1.node[60].wlan.radio 	packetErrorRate:histogram
field count 370362
field mean 0.29084320722563
field stddev 0.44273484716487
field sum 107717.2719145
field sqrsum 103924.83155433
field min 0
field max 1
attr source  packetErrorRate
attr title  "Packet error rate, histogram"
bin	-INF	142616
bin	-2.2368773500148e-12	0
bin	-1.9386270366795e-12	0
bin	-1.6403767233442e-12	0
bin	-1.3421264100089e-12	0
bin	-1.0438760966736e-12	0
bin	-7.4562578333826e-13	0
bin	-4.4737547000295e-13	0
bin	-1.4912515666765e-13	167163
bin	1.4912515666765e-13	1194
bin	4.4737547000295e-13	1222
bin	7.4562578333826e-13	733
bin	1.0438760966736e-12	265
bin	1.3421264100089e-12	454
bin	1.6403767233442e-12	190
bin	1.9386270366795e-12	338
bin	2.2368773500148e-12	161
bin	2.5351276633501e-12	260
bin	2.8333779766854e-12	241
bin	3.1316282900207e-12	115
bin	3.429878603356e-12	195
bin	3.7281289166913e-12	80
bin	4.0263792300266e-12	178
bin	4.3246295433619e-12	182
bin	4.6228798566972e-12	61
bin	4.9211301700325e-12	141
bin	5.2193804833678e-12	71
bin	5.5176307967031e-12	125
bin	5.8158811100384e-12	71
bin	6.1141314233737e-12	129
bin	6.412381736709e-12	115
bin	6.7106320500443e-12	54062
statistic scenarioPRJP1.node[60].wlan.radio 	minSNIR:histogram
field count 370362
field mean 3625.1556232854
field stddev 129574.95251843
field sum 1342619886.9512
field sqrsum 6.2231055547534e+15
field min 0.00010569314309073
field max 23077786.29056
attr source  minSNIR
attr title  "Min SNIR, histogram"
bin	-INF	0
bin	-73534.71778039	0
bin	-63729.232063434	0
bin	-53923.746346477	0
bin	-44118.26062952	0
bin	-34312.774912563	0
bin	-24507.289195606	0
bin	-14701.803478649	0
bin	-4896.3177616918	359320
bin	4909.1679552652	5937
bin	14714.653672222	1466
bin	24520.139389179	650
bin	34325.625106136	309
bin	44131.110823093	349
bin	53936.59654005	176
bin	63742.082257007	119
bin	73547.567973964	360
bin	83353.053690921	365
bin	93158.539407878	103
bin	102964.02512483	92
bin	112769.51084179	45
bin	122574.99655875	48
bin	132380.48227571	34
bin	142185.96799266	44
bin	151991.45370962	91
bin	161796.93942658	30
bin	171602.42514353	19
bin	181407.91086049	19
bin	191213.39657745	16
bin	201018.8822944	8
bin	210824.36801136	12
bin	220629.85372832	750
scalar scenarioPRJP1.node[60].lo0.lo 	droppedPkBitError:count 	0
attr interpolationmode  none
attr source  dropPkBitError
attr title  "packets dropped/bit error, count"
scalar scenarioPRJP1.node[60].lo0.lo 	droppedPkBitError:sum(packetBytes) 	0
attr interpolationmode  none
attr source  dropPkBitError
attr title  "packets dropped/bit error, sum(packetBytes)"
scalar scenarioPRJP1.node[60].lo0.lo 	rcvdPkFromHL:count 	0
attr interpolationmode  none
attr source  packetReceivedFromUpper
attr title  "packets received from higher layer, count"
scalar scenarioPRJP1.node[60].lo0.lo 	rcvdPkFromHL:sum(packetBytes) 	0
attr interpolationmode  none
attr source  packetReceivedFromUpper
attr title  "packets received from higher layer, sum(packetBytes)"
scalar scenarioPRJP1.node[60].lo0.lo 	passedUpPk:count 	0
attr interpolationmode  none
attr source  packetSentToUpper
attr title  "packets passed to higher layer, count"
scalar scenarioPRJP1.node[60].lo0.lo 	passedUpPk:sum(packetBytes) 	0
attr interpolationmode  none
attr source  packetSentToUpper
attr title  "packets passed to higher layer, sum(packetBytes)"
scalar scenarioPRJP1.node[19].app 	"Total sent" 	5003
scalar scenarioPRJP1.node[19].app 	"Total received" 	1169
scalar scenarioPRJP1.node[19].app 	"Total deleted" 	137
scalar scenarioPRJP1.node[19].app 	dropPk:count 	137
attr interpolationmode  none
attr source  dropPk
attr title  "packets dropped, count"
scalar scenarioPRJP1.node[19].app 	dropPk:sum(packetBytes) 	70144
attr interpolationmode  none
attr source  dropPk
attr title  "packets dropped, sum(packetBytes)"
scalar scenarioPRJP1.node[19].app 	outOfOrderPk:count 	1
attr interpolationmode  none
attr source  outOfOrderPk
attr title  "packets received out of order, count"
scalar scenarioPRJP1.node[19].app 	outOfOrderPk:sum(packetBytes) 	512
attr interpolationmode  none
attr source  outOfOrderPk
attr title  "packets received out of order, sum(packetBytes)"
scalar scenarioPRJP1.node[19].app 	rcvdPk:count 	1169
attr interpolationmode  none
attr source  rcvdPk
attr title  "packets received, count"
scalar scenarioPRJP1.node[19].app 	rcvdPk:sum(packetBytes) 	598528
attr interpolationmode  none
attr source  rcvdPk
attr title  "packets received, sum(packetBytes)"
statistic scenarioPRJP1.node[19].app 	endToEndDelay:histogram
field count 1169
field mean 4.6161620637072
field stddev 5.659518336496
field sum 5396.2934524737
field sqrsum 62321.377751666
field min 0.000883346564
field max 19.986792329086
attr interpolationmode  none
attr source  messageAge(rcvdPk)
attr title  "delay, histogram"
attr unit  s
bin	-INF	0
bin	-9.4563953705455	0
bin	-8.1954214092969	0
bin	-6.9344474480483	0
bin	-5.6734734867997	0
bin	-4.4124995255511	0
bin	-3.1515255643025	0
bin	-1.8905516030539	0
bin	-0.6295776418053	490
bin	0.6313963194433	95
bin	1.8923702806919	72
bin	3.1533442419405	64
bin	4.4143182031891	73
bin	5.6752921644377	53
bin	6.9362661256863	36
bin	8.1972400869349	37
bin	9.4582140481835	42
bin	10.719188009432	32
bin	11.980161970681	26
bin	13.241135931929	42
bin	14.502109893178	32
bin	15.763083854426	24
bin	17.024057815675	24
bin	18.285031776924	19
bin	19.546005738172	8
bin	20.806979699421	0
bin	22.067953660669	0
bin	23.328927621918	0
bin	24.589901583167	0
bin	25.850875544415	0
bin	27.111849505664	0
bin	28.372823466913	0
scalar scenarioPRJP1.node[19].app 	sentPk:count 	5003
attr interpolationmode  none
attr source  sentPk
attr title  "packets sent, count"
scalar scenarioPRJP1.node[19].app 	sentPk:sum(packetBytes) 	2561536
attr interpolationmode  none
attr source  sentPk
attr title  "packets sent, sum(packetBytes)"
scalar scenarioPRJP1.node[19].udp 	droppedPkBadChecksum:count 	0
attr interpolationmode  none
attr title  "packets dropped (checksum error), count"
scalar scenarioPRJP1.node[19].udp 	droppedPkWrongPort:count 	0
attr interpolationmode  none
attr title  "packets dropped (wrong port), count"
scalar scenarioPRJP1.node[19].udp 	passedUpPk:count 	1307
attr interpolationmode  none
attr title  "packets passed up, count"
scalar scenarioPRJP1.node[19].udp 	rcvdPk:count 	1307
attr interpolationmode  none
attr source  rcvdPk
attr title  "packets received, count"
scalar scenarioPRJP1.node[19].udp 	rcvdPk:sum(packetBytes) 	679640
attr interpolationmode  none
attr source  rcvdPk
attr title  "packets received, sum(packetBytes)"
scalar scenarioPRJP1.node[19].udp 	sentPk:count 	5003
attr interpolationmode  none
attr source  sentPk
attr title  "packets sent, count"
scalar scenarioPRJP1.node[19].udp 	sentPk:sum(packetBytes) 	2601560
attr interpolationmode  none
attr source  sentPk
attr title  "packets sent, sum(packetBytes)"
scalar scenarioPRJP1.node[19].networkLayer.arp 	failedARPResolution:count 	24
attr title  "ARP failed resolutions, count"
scalar scenarioPRJP1.node[19].networkLayer.arp 	completedARPResolution:count 	1461
attr title  "ARP completed resolutions, count"
scalar scenarioPRJP1.node[19].networkLayer.arp 	initiatedARPResolution:count 	179
attr title  "ARP initiated resolutions, count"
scalar scenarioPRJP1.node[19].networkLayer.arp 	sentReply:count 	106
attr title  "ARP replies sent, count"
scalar scenarioPRJP1.node[19].networkLayer.arp 	sentReq:count 	318
attr title  "ARP request sent, count"
scalar scenarioPRJP1.node[19].mobility 	startTime 	0.1
scalar scenarioPRJP1.node[19].mobility 	totalTime 	1810.2
scalar scenarioPRJP1.node[19].mobility 	stopTime 	1810.4
scalar scenarioPRJP1.node[19].mobility 	minSpeed 	2.4755455541239e-13
scalar scenarioPRJP1.node[19].mobility 	maxSpeed 	17.606177387602
scalar scenarioPRJP1.node[19].mobility 	totalDistance 	19982.594492792
scalar scenarioPRJP1.node[19].mobility 	totalCO2Emission 	4955.1257585697
scalar scenarioPRJP1.node[19].wlan.mgmt 	dataQueueLen:max 	50
attr interpolationmode  sample-hold
attr title  "data queue length, max"
scalar scenarioPRJP1.node[19].wlan.mgmt 	dataQueueLen:timeavg 	0.00046398553496271
attr interpolationmode  sample-hold
attr title  "data queue length, timeavg"
scalar scenarioPRJP1.node[19].wlan.mgmt 	dropPkByQueue:count 	0
attr interpolationmode  none
attr source  dropPkByQueue
attr title  "packets dropped by queue, count"
scalar scenarioPRJP1.node[19].wlan.mgmt 	dropPkByQueue:sum(packetBytes) 	0
attr interpolationmode  none
attr source  dropPkByQueue
attr title  "packets dropped by queue, sum(packetBytes)"
scalar scenarioPRJP1.node[19].wlan.mac 	"number of received packets" 	8002
scalar scenarioPRJP1.node[19].wlan.mac 	"number of collisions" 	130272
scalar scenarioPRJP1.node[19].wlan.mac 	"number of internal collisions" 	0
scalar scenarioPRJP1.node[19].wlan.mac 	"number of retry for AC 0" 	20011
scalar scenarioPRJP1.node[19].wlan.mac 	"number of retry for AC 1" 	7
scalar scenarioPRJP1.node[19].wlan.mac 	"number of retry for AC 2" 	0
scalar scenarioPRJP1.node[19].wlan.mac 	"number of retry for AC 3" 	0
scalar scenarioPRJP1.node[19].wlan.mac 	"sent and received bits" 	70577848
scalar scenarioPRJP1.node[19].wlan.mac 	"sent packet within AC 0" 	7400
scalar scenarioPRJP1.node[19].wlan.mac 	"sent packet within AC 1" 	24
scalar scenarioPRJP1.node[19].wlan.mac 	"sent packet within AC 2" 	0
scalar scenarioPRJP1.node[19].wlan.mac 	"sent packet within AC 3" 	0
scalar scenarioPRJP1.node[19].wlan.mac 	"sent in TXOP " 	0
scalar scenarioPRJP1.node[19].wlan.mac 	"sentWithoutRetry AC 0" 	4970
scalar scenarioPRJP1.node[19].wlan.mac 	"sentWithoutRetry AC 1" 	21
scalar scenarioPRJP1.node[19].wlan.mac 	"sentWithoutRetry AC 2" 	0
scalar scenarioPRJP1.node[19].wlan.mac 	"sentWithoutRetry AC 3" 	0
scalar scenarioPRJP1.node[19].wlan.mac 	"numGivenUp AC 0" 	2196
scalar scenarioPRJP1.node[19].wlan.mac 	"numGivenUp AC 1" 	0
scalar scenarioPRJP1.node[19].wlan.mac 	"numGivenUp AC 2" 	0
scalar scenarioPRJP1.node[19].wlan.mac 	"numGivenUp AC 3" 	0
scalar scenarioPRJP1.node[19].wlan.mac 	"numDropped AC 0" 	16
scalar scenarioPRJP1.node[19].wlan.mac 	"numDropped AC 1" 	0
scalar scenarioPRJP1.node[19].wlan.mac 	"numDropped AC 2" 	0
scalar scenarioPRJP1.node[19].wlan.mac 	"numDropped AC 3" 	0
scalar scenarioPRJP1.node[19].wlan.mac 	rcvdPkFromLL:count 	368671
attr interpolationmode  none
attr source  packetReceivedFromLower
attr title  "packets received from lower layer, count"
scalar scenarioPRJP1.node[19].wlan.mac 	rcvdPkFromLL:sum(packetBytes) 	123040706
attr interpolationmode  none
attr source  packetReceivedFromLower
attr title  "packets received from lower layer, sum(packetBytes)"
scalar scenarioPRJP1.node[19].wlan.mac 	sentDownPk:count 	66198
attr interpolationmode  none
attr source  packetSentToLower
attr title  "packets sent to lower layer, count"
scalar scenarioPRJP1.node[19].wlan.mac 	sentDownPk:sum(packetBytes) 	21513027
attr interpolationmode  none
attr source  packetSentToLower
attr title  "packets sent to lower layer, sum(packetBytes)"
scalar scenarioPRJP1.node[19].wlan.mac 	rcvdPkFromHL:count 	38194
attr interpolationmode  none
attr source  packetReceivedFromUpper
attr title  "packets received from higher layer, count"
scalar scenarioPRJP1.node[19].wlan.mac 	rcvdPkFromHL:sum(packetBytes) 	10079402
attr interpolationmode  none
attr source  packetReceivedFromUpper
attr title  "packets received from higher layer, sum(packetBytes)"
scalar scenarioPRJP1.node[19].wlan.mac 	passedUpPk:count 	112159
attr interpolationmode  none
attr source  packetSentToUpper
attr title  "packets passed to higher layer, count"
scalar scenarioPRJP1.node[19].wlan.mac 	passedUpPk:sum(packetBytes) 	21363763
attr interpolationmode  none
attr source  packetSentToUpper
attr title  "packets passed to higher layer, sum(packetBytes)"
statistic scenarioPRJP1.node[19].wlan.radio 	radioChannel:histogram
field count 1
field mean 3
field stddev -nan
field sum 3
field sqrsum 9
field min 3
field max 3
attr interpolationmode  sample-hold
attr source  radioChannelChanged
attr title  "Radio channel, histogram"
bin	-INF	0
bin	2	0
bin	3	1
bin	4	0
scalar scenarioPRJP1.node[19].wlan.radio 	transmissionState:count 	264792
attr interpolationmode  sample-hold
attr source  transmissionStateChanged
attr title  "Radio transmission state, count"
scalar scenarioPRJP1.node[19].wlan.radio 	receptionState:count 	1824017
attr interpolationmode  sample-hold
attr source  receptionStateChanged
attr title  "Radio reception state, count"
scalar scenarioPRJP1.node[19].wlan.radio 	radioMode:count 	132398
attr interpolationmode  sample-hold
attr source  radioModeChanged
attr title  "Radio mode, count"
statistic scenarioPRJP1.node[19].wlan.radio 	symbolErrorRate:histogram
field count 0
field mean -nan
field stddev -nan
field sum 0
field sqrsum 0
field min -nan
field max -nan
attr source  symbolErrorRate
attr title  "Symbol error rate, histogram"
bin	-INF	0
bin	-0.5	0
bin	-0.46666666666667	0
bin	-0.43333333333333	0
bin	-0.4	0
bin	-0.36666666666667	0
bin	-0.33333333333333	0
bin	-0.3	0
bin	-0.26666666666667	0
bin	-0.23333333333333	0
bin	-0.2	0
bin	-0.16666666666667	0
bin	-0.13333333333333	0
bin	-0.1	0
bin	-0.066666666666667	0
bin	-0.033333333333333	0
bin	0	0
bin	0.033333333333333	0
bin	0.066666666666667	0
bin	0.1	0
bin	0.13333333333333	0
bin	0.16666666666667	0
bin	0.2	0
bin	0.23333333333333	0
bin	0.26666666666667	0
bin	0.3	0
bin	0.33333333333333	0
bin	0.36666666666667	0
bin	0.4	0
bin	0.43333333333333	0
bin	0.46666666666667	0
bin	0.5	0
statistic scenarioPRJP1.node[19].wlan.radio 	bitErrorRate:histogram
field count 0
field mean -nan
field stddev -nan
field sum 0
field sqrsum 0
field min -nan
field max -nan
attr source  bitErrorRate
attr title  "Bit error rate, histogram"
bin	-INF	0
bin	-0.5	0
bin	-0.46666666666667	0
bin	-0.43333333333333	0
bin	-0.4	0
bin	-0.36666666666667	0
bin	-0.33333333333333	0
bin	-0.3	0
bin	-0.26666666666667	0
bin	-0.23333333333333	0
bin	-0.2	0
bin	-0.16666666666667	0
bin	-0.13333333333333	0
bin	-0.1	0
bin	-0.066666666666667	0
bin	-0.033333333333333	0
bin	0	0
bin	0.033333333333333	0
bin	0.066666666666667	0
bin	0.1	0
bin	0.13333333333333	0
bin	0.16666666666667	0
bin	0.2	0
bin	0.23333333333333	0
bin	0.26666666666667	0
bin	0.3	0
bin	0.33333333333333	0
bin	0.36666666666667	0
bin	0.4	0
bin	0.43333333333333	0
bin	0.46666666666667	0
bin	0.5	0
statistic scenarioPRJP1.node[19].wlan.radio 	packetErrorRate:histogram
field count 368671
field mean 0.32054168750574
field stddev 0.45478734559514
field sum 118174.42447443
field sqrsum 114132.40950052
field min 0
field max 1
attr source  packetErrorRate
attr title  "Packet error rate, histogram"
bin	-INF	157140
bin	-1.4748202659121e-12	0
bin	-1.2781775637905e-12	0
bin	-1.0815348616688e-12	0
bin	-8.8489215954723e-13	0
bin	-6.8824945742563e-13	0
bin	-4.9160675530402e-13	0
bin	-2.9496405318241e-13	0
bin	-9.8321351060804e-14	152020
bin	9.8321351060804e-14	1310
bin	2.9496405318241e-13	595
bin	4.9160675530402e-13	1048
bin	6.8824945742563e-13	289
bin	8.8489215954723e-13	487
bin	1.0815348616688e-12	182
bin	1.2781775637905e-12	168
bin	1.4748202659121e-12	353
bin	1.6714629680337e-12	127
bin	1.8681056701553e-12	268
bin	2.0647483722769e-12	98
bin	2.2613910743985e-12	110
bin	2.4580337765201e-12	215
bin	2.6546764786417e-12	89
bin	2.8513191807633e-12	71
bin	3.0479618828849e-12	155
bin	3.2446045850065e-12	71
bin	3.4412472871281e-12	194
bin	3.6378899892497e-12	72
bin	3.8345326913714e-12	48
bin	4.031175393493e-12	127
bin	4.2278180956146e-12	60
bin	4.4244607977362e-12	53374
statistic scenarioPRJP1.node[19].wlan.radio 	minSNIR:histogram
field count 368671
field mean 3109.5271197652
field stddev 109338.00175001
field sum 1146392472.771
field sqrsum 4.4109403481844e+15
field min 0.00011443319456542
field max 53883458.60402
attr source  minSNIR
attr title  "Min SNIR, histogram"
bin	-INF	0
bin	-57644.298838989	0
bin	-49957.53991315	0
bin	-42270.780987311	0
bin	-34584.022061472	0
bin	-26897.263135633	0
bin	-19210.504209794	0
bin	-11523.745283955	0
bin	-3836.9863581164	356567
bin	3849.7725677224	6430
bin	11536.531493561	1985
bin	19223.2904194	756
bin	26910.049345239	368
bin	34596.808271078	184
bin	42283.567196917	182
bin	49970.326122756	138
bin	57657.085048595	93
bin	65343.843974433	120
bin	73030.602900272	418
bin	80717.361826111	253
bin	88404.12075195	37
bin	96090.879677789	52
bin	103777.63860363	26
bin	111464.39752947	32
bin	119151.15645531	52
bin	126837.91538114	48
bin	134524.67430698	27
bin	142211.43323282	25
bin	149898.19215866	28
bin	157584.9510845	30
bin	165271.71001034	22
bin	172958.46893618	798
scalar scenarioPRJP1.node[19].lo0.lo 	droppedPkBitError:count 	0
attr interpolationmode  none
attr source  dropPkBitError
attr title  "packets dropped/bit error, count"
scalar scenarioPRJP1.node[19].lo0.lo 	droppedPkBitError:sum(packetBytes) 	0
attr interpolationmode  none
attr source  dropPkBitError
attr title  "packets dropped/bit error, sum(packetBytes)"
scalar scenarioPRJP1.node[19].lo0.lo 	rcvdPkFromHL:count 	0
attr interpolationmode  none
attr source  packetReceivedFromUpper
attr title  "packets received from higher layer, count"
scalar scenarioPRJP1.node[19].lo0.lo 	rcvdPkFromHL:sum(packetBytes) 	0
attr interpolationmode  none
attr source  packetReceivedFromUpper
attr title  "packets received from higher layer, sum(packetBytes)"
scalar scenarioPRJP1.node[19].lo0.lo 	passedUpPk:count 	0
attr interpolationmode  none
attr source  packetSentToUpper
attr title  "packets passed to higher layer, count"
scalar scenarioPRJP1.node[19].lo0.lo 	passedUpPk:sum(packetBytes) 	0
attr interpolationmode  none
attr source  packetSentToUpper
attr title  "packets passed to higher layer, sum(packetBytes)"
scalar scenarioPRJP1.node[50].app 	"Total sent" 	5004
scalar scenarioPRJP1.node[50].app 	"Total received" 	1229
scalar scenarioPRJP1.node[50].app 	"Total deleted" 	174
scalar scenarioPRJP1.node[50].app 	dropPk:count 	174
attr interpolationmode  none
attr source  dropPk
attr title  "packets dropped, count"
scalar scenarioPRJP1.node[50].app 	dropPk:sum(packetBytes) 	89088
attr interpolationmode  none
attr source  dropPk
attr title  "packets dropped, sum(packetBytes)"
scalar scenarioPRJP1.node[50].app 	outOfOrderPk:count 	1
attr interpolationmode  none
attr source  outOfOrderPk
attr title  "packets received out of order, count"
scalar scenarioPRJP1.node[50].app 	outOfOrderPk:sum(packetBytes) 	512
attr interpolationmode  none
attr source  outOfOrderPk
attr title  "packets received out of order, sum(packetBytes)"
scalar scenarioPRJP1.node[50].app 	rcvdPk:count 	1229
attr interpolationmode  none
attr source  rcvdPk
attr title  "packets received, count"
scalar scenarioPRJP1.node[50].app 	rcvdPk:sum(packetBytes) 	629248
attr interpolationmode  none
attr source  rcvdPk
attr title  "packets received, sum(packetBytes)"
statistic scenarioPRJP1.node[50].app 	endToEndDelay:histogram
field count 1229
field mean 4.2435352876766
field stddev 5.5641121283188
field sum 5215.3048685545
field sqrsum 60149.40440325
field min 0.000891011011
field max 19.875700861044
attr interpolationmode  none
attr source  messageAge(rcvdPk)
attr title  "delay, histogram"
attr unit  s
bin	-INF	0
bin	-9.9365138341185	0
bin	-8.6115265143335	0
bin	-7.2865391945485	0
bin	-5.9615518747635	0
bin	-4.6365645549785	0
bin	-3.3115772351935	0
bin	-1.9865899154085	0
bin	-0.6616025956235	574
bin	0.6633847241615	112
bin	1.9883720439465	59
bin	3.3133593637315	57
bin	4.6383466835165	66
bin	5.9633340033015	50
bin	7.2883213230865	47
bin	8.6133086428715	39
bin	9.9382959626565	45
bin	11.263283282441	33
bin	12.588270602226	34
bin	13.913257922011	25
bin	15.238245241796	20
bin	16.563232561582	30
bin	17.888219881366	29
bin	19.213207201151	9
bin	20.538194520936	0
bin	21.863181840721	0
bin	23.188169160506	0
bin	24.513156480291	0
bin	25.838143800077	0
bin	27.163131119861	0
bin	28.488118439646	0
bin	29.813105759432	0
scalar scenarioPRJP1.node[50].app 	sentPk:count 	5004
attr interpolationmode  none
attr source  sentPk
attr title  "packets sent, count"
scalar scenarioPRJP1.node[50].app 	sentPk:sum(packetBytes) 	2562048
attr interpolationmode  none
attr source  sentPk
attr title  "packets sent, sum(packetBytes)"
scalar scenarioPRJP1.node[50].udp 	droppedPkBadChecksum:count 	0
attr interpolationmode  none
attr title  "packets dropped (checksum error), count"
scalar scenarioPRJP1.node[50].udp 	droppedPkWrongPort:count 	16
attr interpolationmode  none
attr title  "packets dropped (wrong port), count"
scalar scenarioPRJP1.node[50].udp 	passedUpPk:count 	1404
attr interpolationmode  none
attr title  "packets passed up, count"
scalar scenarioPRJP1.node[50].udp 	rcvdPk:count 	1420
attr interpolationmode  none
attr source  rcvdPk
attr title  "packets received, count"
scalar scenarioPRJP1.node[50].udp 	rcvdPk:sum(packetBytes) 	738400
attr interpolationmode  none
attr source  rcvdPk
attr title  "packets received, sum(packetBytes)"
scalar scenarioPRJP1.node[50].udp 	sentPk:count 	5004
attr interpolationmode  none
attr source  sentPk
attr title  "packets sent, count"
scalar scenarioPRJP1.node[50].udp 	sentPk:sum(packetBytes) 	2602080
attr interpolationmode  none
attr source  sentPk
attr title  "packets sent, sum(packetBytes)"
scalar scenarioPRJP1.node[50].networkLayer.arp 	failedARPResolution:count 	16
attr title  "ARP failed resolutions, count"
scalar scenarioPRJP1.node[50].networkLayer.arp 	completedARPResolution:count 	1567
attr title  "ARP completed resolutions, count"
scalar scenarioPRJP1.node[50].networkLayer.arp 	initiatedARPResolution:count 	161
attr title  "ARP initiated resolutions, count"
scalar scenarioPRJP1.node[50].networkLayer.arp 	sentReply:count 	128
attr title  "ARP replies sent, count"
scalar scenarioPRJP1.node[50].networkLayer.arp 	sentReq:count 	258
attr title  "ARP request sent, count"
scalar scenarioPRJP1.node[50].mobility 	startTime 	4.9
scalar scenarioPRJP1.node[50].mobility 	totalTime 	1824.1
scalar scenarioPRJP1.node[50].mobility 	stopTime 	1829.1
scalar scenarioPRJP1.node[50].mobility 	minSpeed 	2.4754640559381e-13
scalar scenarioPRJP1.node[50].mobility 	maxSpeed 	21.671970935029
scalar scenarioPRJP1.node[50].mobility 	totalDistance 	20820.70719793
scalar scenarioPRJP1.node[50].mobility 	totalCO2Emission 	5708.7655135406
scalar scenarioPRJP1.node[50].wlan.mgmt 	dataQueueLen:max 	55
attr interpolationmode  sample-hold
attr title  "data queue length, max"
scalar scenarioPRJP1.node[50].wlan.mgmt 	dataQueueLen:timeavg 	0.00040462240608212
attr interpolationmode  sample-hold
attr title  "data queue length, timeavg"
scalar scenarioPRJP1.node[50].wlan.mgmt 	dropPkByQueue:count 	0
attr interpolationmode  none
attr source  dropPkByQueue
attr title  "packets dropped by queue, count"
scalar scenarioPRJP1.node[50].wlan.mgmt 	dropPkByQueue:sum(packetBytes) 	0
attr interpolationmode  none
attr source  dropPkByQueue
attr title  "packets dropped by queue, sum(packetBytes)"
scalar scenarioPRJP1.node[50].wlan.mac 	"number of received packets" 	7330
scalar scenarioPRJP1.node[50].wlan.mac 	"number of collisions" 	125469
scalar scenarioPRJP1.node[50].wlan.mac 	"number of internal collisions" 	3
scalar scenarioPRJP1.node[50].wlan.mac 	"number of retry for AC 0" 	19097
scalar scenarioPRJP1.node[50].wlan.mac 	"number of retry for AC 1" 	31
scalar scenarioPRJP1.node[50].wlan.mac 	"number of retry for AC 2" 	0
scalar scenarioPRJP1.node[50].wlan.mac 	"number of retry for AC 3" 	0
scalar scenarioPRJP1.node[50].wlan.mac 	"sent and received bits" 	68077096
scalar scenarioPRJP1.node[50].wlan.mac 	"sent packet within AC 0" 	6884
scalar scenarioPRJP1.node[50].wlan.mac 	"sent packet within AC 1" 	45
scalar scenarioPRJP1.node[50].wlan.mac 	"sent packet within AC 2" 	0
scalar scenarioPRJP1.node[50].wlan.mac 	"sent packet within AC 3" 	0
scalar scenarioPRJP1.node[50].wlan.mac 	"sent in TXOP " 	0
scalar scenarioPRJP1.node[50].wlan.mac 	"sentWithoutRetry AC 0" 	4545
scalar scenarioPRJP1.node[50].wlan.mac 	"sentWithoutRetry AC 1" 	36
scalar scenarioPRJP1.node[50].wlan.mac 	"sentWithoutRetry AC 2" 	0
scalar scenarioPRJP1.node[50].wlan.mac 	"sentWithoutRetry AC 3" 	0
scalar scenarioPRJP1.node[50].wlan.mac 	"numGivenUp AC 0" 	2092
scalar scenarioPRJP1.node[50].wlan.mac 	"numGivenUp AC 1" 	1
scalar scenarioPRJP1.node[50].wlan.mac 	"numGivenUp AC 2" 	0
scalar scenarioPRJP1.node[50].wlan.mac 	"numGivenUp AC 3" 	0
scalar scenarioPRJP1.node[50].wlan.mac 	"numDropped AC 0" 	9
scalar scenarioPRJP1.node[50].wlan.mac 	"numDropped AC 1" 	0
scalar scenarioPRJP1.node[50].wlan.mac 	"numDropped AC 2" 	0
scalar scenarioPRJP1.node[50].wlan.mac 	"numDropped AC 3" 	0
scalar scenarioPRJP1.node[50].wlan.mac 	rcvdPkFromLL:count 	412933
attr interpolationmode  none
attr source  packetReceivedFromLower
attr title  "packets received from lower layer, count"
scalar scenarioPRJP1.node[50].wlan.mac 	rcvdPkFromLL:sum(packetBytes) 	134938159
attr interpolationmode  none
attr source  packetReceivedFromLower
attr title  "packets received from lower layer, sum(packetBytes)"
scalar scenarioPRJP1.node[50].wlan.mac 	sentDownPk:count 	64475
attr interpolationmode  none
attr source  packetSentToLower
attr title  "packets sent to lower layer, count"
scalar scenarioPRJP1.node[50].wlan.mac 	sentDownPk:sum(packetBytes) 	20572795
attr interpolationmode  none
attr source  packetSentToLower
attr title  "packets sent to lower layer, sum(packetBytes)"
scalar scenarioPRJP1.node[50].wlan.mac 	rcvdPkFromHL:count 	38029
attr interpolationmode  none
attr source  packetReceivedFromUpper
attr title  "packets received from higher layer, count"
scalar scenarioPRJP1.node[50].wlan.mac 	rcvdPkFromHL:sum(packetBytes) 	9699064
attr interpolationmode  none
attr source  packetReceivedFromUpper
attr title  "packets received from higher layer, sum(packetBytes)"
scalar scenarioPRJP1.node[50].wlan.mac 	passedUpPk:count 	135978
attr interpolationmode  none
attr source  packetSentToUpper
attr title  "packets passed to higher layer, count"
scalar scenarioPRJP1.node[50].wlan.mac 	passedUpPk:sum(packetBytes) 	24547958
attr interpolationmode  none
attr source  packetSentToUpper
attr title  "packets passed to higher layer, sum(packetBytes)"
statistic scenarioPRJP1.node[50].wlan.radio 	radioChannel:histogram
field count 1
field mean 3
field stddev -nan
field sum 3
field sqrsum 9
field min 3
field max 3
attr interpolationmode  sample-hold
attr source  radioChannelChanged
attr title  "Radio channel, histogram"
bin	-INF	0
bin	2	0
bin	3	1
bin	4	0
scalar scenarioPRJP1.node[50].wlan.radio 	transmissionState:count 	257900
attr interpolationmode  sample-hold
attr source  transmissionStateChanged
attr title  "Radio transmission state, count"
scalar scenarioPRJP1.node[50].wlan.radio 	receptionState:count 	1821148
attr interpolationmode  sample-hold
attr source  receptionStateChanged
attr title  "Radio reception state, count"
scalar scenarioPRJP1.node[50].wlan.radio 	radioMode:count 	128952
attr interpolationmode  sample-hold
attr source  radioModeChanged
attr title  "Radio mode, count"
statistic scenarioPRJP1.node[50].wlan.radio 	symbolErrorRate:histogram
field count 0
field mean -nan
field stddev -nan
field sum 0
field sqrsum 0
field min -nan
field max -nan
attr source  symbolErrorRate
attr title  "Symbol error rate, histogram"
bin	-INF	0
bin	-0.5	0
bin	-0.46666666666667	0
bin	-0.43333333333333	0
bin	-0.4	0
bin	-0.36666666666667	0
bin	-0.33333333333333	0
bin	-0.3	0
bin	-0.26666666666667	0
bin	-0.23333333333333	0
bin	-0.2	0
bin	-0.16666666666667	0
bin	-0.13333333333333	0
bin	-0.1	0
bin	-0.066666666666667	0
bin	-0.033333333333333	0
bin	0	0
bin	0.033333333333333	0
bin	0.066666666666667	0
bin	0.1	0
bin	0.13333333333333	0
bin	0.16666666666667	0
bin	0.2	0
bin	0.23333333333333	0
bin	0.26666666666667	0
bin	0.3	0
bin	0.33333333333333	0
bin	0.36666666666667	0
bin	0.4	0
bin	0.43333333333333	0
bin	0.46666666666667	0
bin	0.5	0
statistic scenarioPRJP1.node[50].wlan.radio 	bitErrorRate:histogram
field count 0
field mean -nan
field stddev -nan
field sum 0
field sqrsum 0
field min -nan
field max -nan
attr source  bitErrorRate
attr title  "Bit error rate, histogram"
bin	-INF	0
bin	-0.5	0
bin	-0.46666666666667	0
bin	-0.43333333333333	0
bin	-0.4	0
bin	-0.36666666666667	0
bin	-0.33333333333333	0
bin	-0.3	0
bin	-0.26666666666667	0
bin	-0.23333333333333	0
bin	-0.2	0
bin	-0.16666666666667	0
bin	-0.13333333333333	0
bin	-0.1	0
bin	-0.066666666666667	0
bin	-0.033333333333333	0
bin	0	0
bin	0.033333333333333	0
bin	0.066666666666667	0
bin	0.1	0
bin	0.13333333333333	0
bin	0.16666666666667	0
bin	0.2	0
bin	0.23333333333333	0
bin	0.26666666666667	0
bin	0.3	0
bin	0.33333333333333	0
bin	0.36666666666667	0
bin	0.4	0
bin	0.43333333333333	0
bin	0.46666666666667	0
bin	0.5	0
statistic scenarioPRJP1.node[50].wlan.radio 	packetErrorRate:histogram
field count 412933
field mean 0.27541188471682
field stddev 0.43578442845844
field sum 113726.65579177
field sqrsum 109740.79098539
field min 0
field max 1
attr source  packetErrorRate
attr title  "Packet error rate, histogram"
bin	-INF	0
bin	-0.5	0
bin	-0.46666666666667	0
bin	-0.43333333333333	0
bin	-0.4	0
bin	-0.36666666666667	0
bin	-0.33333333333333	0
bin	-0.3	0
bin	-0.26666666666667	0
bin	-0.23333333333333	0
bin	-0.2	0
bin	-0.16666666666667	0
bin	-0.13333333333333	0
bin	-0.1	0
bin	-0.066666666666667	0
bin	-0.033333333333333	0
bin	0	282801
bin	0.033333333333333	4244
bin	0.066666666666667	2519
bin	0.1	1778
bin	0.13333333333333	1453
bin	0.16666666666667	1144
bin	0.2	996
bin	0.23333333333333	901
bin	0.26666666666667	811
bin	0.3	709
bin	0.33333333333333	680
bin	0.36666666666667	654
bin	0.4	645
bin	0.43333333333333	546
bin	0.46666666666667	578
bin	0.5	112474
statistic scenarioPRJP1.node[50].wlan.radio 	minSNIR:histogram
field count 412933
field mean 4373.9269273569
field stddev 83864.10926557
field sum 1806138767.8943
field sqrsum 2.9121286460123e+15
field min 0.0001319187116802
field max 8668482.8294483
attr source  minSNIR
attr title  "Min SNIR, histogram"
bin	-INF	0
bin	-947141.5431363	0
bin	-820854.85457261	0
bin	-694568.16600892	0
bin	-568281.47744523	0
bin	-441994.78888154	0
bin	-315708.10031785	0
bin	-189421.41175416	0
bin	-63134.723190473	410224
bin	63151.965373216	1440
bin	189438.65393691	270
bin	315725.34250059	84
bin	442012.03106428	88
bin	568298.71962797	168
bin	694585.40819166	310
bin	820872.09675535	9
bin	947158.78531904	17
bin	1073445.4738827	5
bin	1199732.1624464	17
bin	1326018.8510101	4
bin	1452305.5395738	4
bin	1578592.2281375	7
bin	1704878.9167012	3
bin	1831165.6052649	2
bin	1957452.2938286	3
bin	2083738.9823922	2
bin	2210025.6709559	6
bin	2336312.3595196	1
bin	2462599.0480833	9
bin	2588885.736647	3
bin	2715172.4252107	5
bin	2841459.1137744	252
scalar scenarioPRJP1.node[50].lo0.lo 	droppedPkBitError:count 	0
attr interpolationmode  none
attr source  dropPkBitError
attr title  "packets dropped/bit error, count"
scalar scenarioPRJP1.node[50].lo0.lo 	droppedPkBitError:sum(packetBytes) 	0
attr interpolationmode  none
attr source  dropPkBitError
attr title  "packets dropped/bit error, sum(packetBytes)"
scalar scenarioPRJP1.node[50].lo0.lo 	rcvdPkFromHL:count 	1
attr interpolationmode  none
attr source  packetReceivedFromUpper
attr title  "packets received from higher layer, count"
scalar scenarioPRJP1.node[50].lo0.lo 	rcvdPkFromHL:sum(packetBytes) 	56
attr interpolationmode  none
attr source  packetReceivedFromUpper
attr title  "packets received from higher layer, sum(packetBytes)"
scalar scenarioPRJP1.node[50].lo0.lo 	passedUpPk:count 	1
attr interpolationmode  none
attr source  packetSentToUpper
attr title  "packets passed to higher layer, count"
scalar scenarioPRJP1.node[50].lo0.lo 	passedUpPk:sum(packetBytes) 	56
attr interpolationmode  none
attr source  packetSentToUpper
attr title  "packets passed to higher layer, sum(packetBytes)"
scalar scenarioPRJP1.node[52].app 	"Total sent" 	5002
scalar scenarioPRJP1.node[52].app 	"Total received" 	2050
scalar scenarioPRJP1.node[52].app 	"Total deleted" 	248
scalar scenarioPRJP1.node[52].app 	dropPk:count 	248
attr interpolationmode  none
attr source  dropPk
attr title  "packets dropped, count"
scalar scenarioPRJP1.node[52].app 	dropPk:sum(packetBytes) 	126976
attr interpolationmode  none
attr source  dropPk
attr title  "packets dropped, sum(packetBytes)"
scalar scenarioPRJP1.node[52].app 	outOfOrderPk:count 	1
attr interpolationmode  none
attr source  outOfOrderPk
attr title  "packets received out of order, count"
scalar scenarioPRJP1.node[52].app 	outOfOrderPk:sum(packetBytes) 	512
attr interpolationmode  none
attr source  outOfOrderPk
attr title  "packets received out of order, sum(packetBytes)"
scalar scenarioPRJP1.node[52].app 	rcvdPk:count 	2050
attr interpolationmode  none
attr source  rcvdPk
attr title  "packets received, count"
scalar scenarioPRJP1.node[52].app 	rcvdPk:sum(packetBytes) 	1049600
attr interpolationmode  none
attr source  rcvdPk
attr title  "packets received, sum(packetBytes)"
statistic scenarioPRJP1.node[52].app 	endToEndDelay:histogram
field count 2050
field mean 4.3146046030221
field stddev 5.4709648370001
field sum 8844.9394361953
field sqrsum 99491.970256381
field min 0.00089103366
field max 19.82370289497
attr interpolationmode  none
attr source  messageAge(rcvdPk)
attr title  "delay, histogram"
attr unit  s
bin	-INF	0
bin	-9.6003985303345	0
bin	-8.3202265884686	0
bin	-7.0400546466026	0
bin	-5.7598827047367	0
bin	-4.4797107628708	0
bin	-3.1995388210048	0
bin	-1.9193668791389	0
bin	-0.63919493727297	904
bin	0.64097700459297	174
bin	1.9211489464589	147
bin	3.2013208883248	95
bin	4.4814928301908	100
bin	5.7616647720567	88
bin	7.0418367139226	72
bin	8.3220086557886	66
bin	9.6021805976545	82
bin	10.88235253952	61
bin	12.162524481386	65
bin	13.442696423252	37
bin	14.722868365118	47
bin	16.003040306984	47
bin	17.28321224885	34
bin	18.563384190716	31
bin	19.843556132582	0
bin	21.123728074448	0
bin	22.403900016314	0
bin	23.68407195818	0
bin	24.964243900046	0
bin	26.244415841912	0
bin	27.524587783778	0
bin	28.804759725643	0
scalar scenarioPRJP1.node[52].app 	sentPk:count 	5002
attr interpolationmode  none
attr source  sentPk
attr title  "packets sent, count"
scalar scenarioPRJP1.node[52].app 	sentPk:sum(packetBytes) 	2561024
attr interpolationmode  none
attr source  sentPk
attr title  "packets sent, sum(packetBytes)"
scalar scenarioPRJP1.node[52].udp 	droppedPkBadChecksum:count 	0
attr interpolationmode  none
attr title  "packets dropped (checksum error), count"
scalar scenarioPRJP1.node[52].udp 	droppedPkWrongPort:count 	38
attr interpolationmode  none
attr title  "packets dropped (wrong port), count"
scalar scenarioPRJP1.node[52].udp 	passedUpPk:count 	2299
attr interpolationmode  none
attr title  "packets passed up, count"
scalar scenarioPRJP1.node[52].udp 	rcvdPk:count 	2337
attr interpolationmode  none
attr source  rcvdPk
attr title  "packets received, count"
scalar scenarioPRJP1.node[52].udp 	rcvdPk:sum(packetBytes) 	1215240
attr interpolationmode  none
attr source  rcvdPk
attr title  "packets received, sum(packetBytes)"
scalar scenarioPRJP1.node[52].udp 	sentPk:count 	5002
attr interpolationmode  none
attr source  sentPk
attr title  "packets sent, count"
scalar scenarioPRJP1.node[52].udp 	sentPk:sum(packetBytes) 	2601040
attr interpolationmode  none
attr source  sentPk
attr title  "packets sent, sum(packetBytes)"
scalar scenarioPRJP1.node[52].networkLayer.arp 	failedARPResolution:count 	17
attr title  "ARP failed resolutions, count"
scalar scenarioPRJP1.node[52].networkLayer.arp 	completedARPResolution:count 	1507
attr title  "ARP completed resolutions, count"
scalar scenarioPRJP1.node[52].networkLayer.arp 	initiatedARPResolution:count 	132
attr title  "ARP initiated resolutions, count"
scalar scenarioPRJP1.node[52].networkLayer.arp 	sentReply:count 	130
attr title  "ARP replies sent, count"
scalar scenarioPRJP1.node[52].networkLayer.arp 	sentReq:count 	225
attr title  "ARP request sent, count"
scalar scenarioPRJP1.node[52].mobility 	startTime 	4.9
scalar scenarioPRJP1.node[52].mobility 	totalTime 	1826.4
scalar scenarioPRJP1.node[52].mobility 	stopTime 	1831.4
scalar scenarioPRJP1.node[52].mobility 	minSpeed 	2.4755514215484e-13
scalar scenarioPRJP1.node[52].mobility 	maxSpeed 	17.598736564136
scalar scenarioPRJP1.node[52].mobility 	totalDistance 	16725.370975574
scalar scenarioPRJP1.node[52].mobility 	totalCO2Emission 	4737.1288492637
scalar scenarioPRJP1.node[52].wlan.mgmt 	dataQueueLen:max 	46
attr interpolationmode  sample-hold
attr title  "data queue length, max"
scalar scenarioPRJP1.node[52].wlan.mgmt 	dataQueueLen:timeavg 	0.00062998129877471
attr interpolationmode  sample-hold
attr title  "data queue length, timeavg"
scalar scenarioPRJP1.node[52].wlan.mgmt 	dropPkByQueue:count 	0
attr interpolationmode  none
attr source  dropPkByQueue
attr title  "packets dropped by queue, count"
scalar scenarioPRJP1.node[52].wlan.mgmt 	dropPkByQueue:sum(packetBytes) 	0
attr interpolationmode  none
attr source  dropPkByQueue
attr title  "packets dropped by queue, sum(packetBytes)"
scalar scenarioPRJP1.node[52].wlan.mac 	"number of received packets" 	8425
scalar scenarioPRJP1.node[52].wlan.mac 	"number of collisions" 	131251
scalar scenarioPRJP1.node[52].wlan.mac 	"number of internal collisions" 	2
scalar scenarioPRJP1.node[52].wlan.mac 	"number of retry for AC 0" 	20336
scalar scenarioPRJP1.node[52].wlan.mac 	"number of retry for AC 1" 	44
scalar scenarioPRJP1.node[52].wlan.mac 	"number of retry for AC 2" 	0
scalar scenarioPRJP1.node[52].wlan.mac 	"number of retry for AC 3" 	0
scalar scenarioPRJP1.node[52].wlan.mac 	"sent and received bits" 	67153792
scalar scenarioPRJP1.node[52].wlan.mac 	"sent packet within AC 0" 	6830
scalar scenarioPRJP1.node[52].wlan.mac 	"sent packet within AC 1" 	54
scalar scenarioPRJP1.node[52].wlan.mac 	"sent packet within AC 2" 	0
scalar scenarioPRJP1.node[52].wlan.mac 	"sent packet within AC 3" 	0
scalar scenarioPRJP1.node[52].wlan.mac 	"sent in TXOP " 	0
scalar scenarioPRJP1.node[52].wlan.mac 	"sentWithoutRetry AC 0" 	4685
scalar scenarioPRJP1.node[52].wlan.mac 	"sentWithoutRetry AC 1" 	42
scalar scenarioPRJP1.node[52].wlan.mac 	"sentWithoutRetry AC 2" 	0
scalar scenarioPRJP1.node[52].wlan.mac 	"sentWithoutRetry AC 3" 	0
scalar scenarioPRJP1.node[52].wlan.mac 	"numGivenUp AC 0" 	2378
scalar scenarioPRJP1.node[52].wlan.mac 	"numGivenUp AC 1" 	2
scalar scenarioPRJP1.node[52].wlan.mac 	"numGivenUp AC 2" 	0
scalar scenarioPRJP1.node[52].wlan.mac 	"numGivenUp AC 3" 	0
scalar scenarioPRJP1.node[52].wlan.mac 	"numDropped AC 0" 	17
scalar scenarioPRJP1.node[52].wlan.mac 	"numDropped AC 1" 	0
scalar scenarioPRJP1.node[52].wlan.mac 	"numDropped AC 2" 	0
scalar scenarioPRJP1.node[52].wlan.mac 	"numDropped AC 3" 	0
scalar scenarioPRJP1.node[52].wlan.mac 	rcvdPkFromLL:count 	370025
attr interpolationmode  none
attr source  packetReceivedFromLower
attr title  "packets received from lower layer, count"
scalar scenarioPRJP1.node[52].wlan.mac 	rcvdPkFromLL:sum(packetBytes) 	125455092
attr interpolationmode  none
attr source  packetReceivedFromLower
attr title  "packets received from lower layer, sum(packetBytes)"
scalar scenarioPRJP1.node[52].wlan.mac 	sentDownPk:count 	65829
attr interpolationmode  none
attr source  packetSentToLower
attr title  "packets sent to lower layer, count"
scalar scenarioPRJP1.node[52].wlan.mac 	sentDownPk:sum(packetBytes) 	21302875
attr interpolationmode  none
attr source  packetSentToLower
attr title  "packets sent to lower layer, sum(packetBytes)"
scalar scenarioPRJP1.node[52].wlan.mac 	rcvdPkFromHL:count 	37043
attr interpolationmode  none
attr source  packetReceivedFromUpper
attr title  "packets received from higher layer, count"
scalar scenarioPRJP1.node[52].wlan.mac 	rcvdPkFromHL:sum(packetBytes) 	9750778
attr interpolationmode  none
attr source  packetReceivedFromUpper
attr title  "packets received from higher layer, sum(packetBytes)"
scalar scenarioPRJP1.node[52].wlan.mac 	passedUpPk:count 	107216
attr interpolationmode  none
attr source  packetSentToUpper
attr title  "packets passed to higher layer, count"
scalar scenarioPRJP1.node[52].wlan.mac 	passedUpPk:sum(packetBytes) 	20857248
attr interpolationmode  none
attr source  packetSentToUpper
attr title  "packets passed to higher layer, sum(packetBytes)"
statistic scenarioPRJP1.node[52].wlan.radio 	radioChannel:histogram
field count 1
field mean 3
field stddev -nan
field sum 3
field sqrsum 9
field min 3
field max 3
attr interpolationmode  sample-hold
attr source  radioChannelChanged
attr title  "Radio channel, histogram"
bin	-INF	0
bin	2	0
bin	3	1
bin	4	0
scalar scenarioPRJP1.node[52].wlan.radio 	transmissionState:count 	263316
attr interpolationmode  sample-hold
attr source  transmissionStateChanged
attr title  "Radio transmission state, count"
scalar scenarioPRJP1.node[52].wlan.radio 	receptionState:count 	1893949
attr interpolationmode  sample-hold
attr source  receptionStateChanged
attr title  "Radio reception state, count"
scalar scenarioPRJP1.node[52].wlan.radio 	radioMode:count 	131660
attr interpolationmode  sample-hold
attr source  radioModeChanged
attr title  "Radio mode, count"
statistic scenarioPRJP1.node[52].wlan.radio 	symbolErrorRate:histogram
field count 0
field mean -nan
field stddev -nan
field sum 0
field sqrsum 0
field min -nan
field max -nan
attr source  symbolErrorRate
attr title  "Symbol error rate, histogram"
bin	-INF	0
bin	-0.5	0
bin	-0.46666666666667	0
bin	-0.43333333333333	0
bin	-0.4	0
bin	-0.36666666666667	0
bin	-0.33333333333333	0
bin	-0.3	0
bin	-0.26666666666667	0
bin	-0.23333333333333	0
bin	-0.2	0
bin	-0.16666666666667	0
bin	-0.13333333333333	0
bin	-0.1	0
bin	-0.066666666666667	0
bin	-0.033333333333333	0
bin	0	0
bin	0.033333333333333	0
bin	0.066666666666667	0
bin	0.1	0
bin	0.13333333333333	0
bin	0.16666666666667	0
bin	0.2	0
bin	0.23333333333333	0
bin	0.26666666666667	0
bin	0.3	0
bin	0.33333333333333	0
bin	0.36666666666667	0
bin	0.4	0
bin	0.43333333333333	0
bin	0.46666666666667	0
bin	0.5	0
statistic scenarioPRJP1.node[52].wlan.radio 	bitErrorRate:histogram
field count 0
field mean -nan
field stddev -nan
field sum 0
field sqrsum 0
field min -nan
field max -nan
attr source  bitErrorRate
attr title  "Bit error rate, histogram"
bin	-INF	0
bin	-0.5	0
bin	-0.46666666666667	0
bin	-0.43333333333333	0
bin	-0.4	0
bin	-0.36666666666667	0
bin	-0.33333333333333	0
bin	-0.3	0
bin	-0.26666666666667	0
bin	-0.23333333333333	0
bin	-0.2	0
bin	-0.16666666666667	0
bin	-0.13333333333333	0
bin	-0.1	0
bin	-0.066666666666667	0
bin	-0.033333333333333	0
bin	0	0
bin	0.033333333333333	0
bin	0.066666666666667	0
bin	0.1	0
bin	0.13333333333333	0
bin	0.16666666666667	0
bin	0.2	0
bin	0.23333333333333	0
bin	0.26666666666667	0
bin	0.3	0
bin	0.33333333333333	0
bin	0.36666666666667	0
bin	0.4	0
bin	0.43333333333333	0
bin	0.46666666666667	0
bin	0.5	0
statistic scenarioPRJP1.node[52].wlan.radio 	packetErrorRate:histogram
field count 370025
field mean 0.32521746100581
field stddev 0.45691721729553
field sum 120338.59100867
field sqrsum 116387.3586697
field min 0
field max 1
attr source  packetErrorRate
attr title  "Packet error rate, histogram"
bin	-INF	0
bin	-0.5	0
bin	-0.46666666666667	0
bin	-0.43333333333333	0
bin	-0.4	0
bin	-0.36666666666667	0
bin	-0.33333333333333	0
bin	-0.3	0
bin	-0.26666666666667	0
bin	-0.23333333333333	0
bin	-0.2	0
bin	-0.16666666666667	0
bin	-0.13333333333333	0
bin	-0.1	0
bin	-0.066666666666667	0
bin	-0.033333333333333	0
bin	0	233695
bin	0.033333333333333	3866
bin	0.066666666666667	2434
bin	0.1	1705
bin	0.13333333333333	1494
bin	0.16666666666667	1199
bin	0.2	1037
bin	0.23333333333333	892
bin	0.26666666666667	800
bin	0.3	724
bin	0.33333333333333	689
bin	0.36666666666667	639
bin	0.4	582
bin	0.43333333333333	567
bin	0.46666666666667	535
bin	0.5	119167
statistic scenarioPRJP1.node[52].wlan.radio 	minSNIR:histogram
field count 370025
field mean 4685.0896465515
field stddev 88041.430636211
field sum 1733600296.4652
field sqrsum 2.8762867019786e+15
field min 0.0001127971498381
field max 3012958.8769377
attr source  minSNIR
attr title  "Min SNIR, histogram"
bin	-INF	0
bin	-315753.69414326	0
bin	-273650.35077884	0
bin	-231547.00741442	0
bin	-189443.66405	0
bin	-147340.32068558	0
bin	-105236.97732116	0
bin	-63133.633956742	0
bin	-21030.290592323	365003
bin	21073.052772096	2556
bin	63176.396136515	788
bin	105279.73950093	196
bin	147383.08286535	291
bin	189486.42622977	115
bin	231589.76959419	39
bin	273693.11295861	36
bin	315796.45632303	18
bin	357899.79968745	26
bin	400003.14305187	17
bin	442106.48641629	52
bin	484209.82978071	8
bin	526313.17314513	34
bin	568416.51650955	117
bin	610519.85987396	19
bin	652623.20323838	42
bin	694726.5466028	351
bin	736829.88996722	5
bin	778933.23333164	0
bin	821036.57669606	0
bin	863139.92006048	0
bin	905243.2634249	0
bin	947346.60678932	312
scalar scenarioPRJP1.node[52].lo0.lo 	droppedPkBitError:count 	0
attr interpolationmode  none
attr source  dropPkBitError
attr title  "packets dropped/bit error, count"
scalar scenarioPRJP1.node[52].lo0.lo 	droppedPkBitError:sum(packetBytes) 	0
attr interpolationmode  none
attr source  dropPkBitError
attr title  "packets dropped/bit error, sum(packetBytes)"
scalar scenarioPRJP1.node[52].lo0.lo 	rcvdPkFromHL:count 	0
attr interpolationmode  none
attr source  packetReceivedFromUpper
attr title  "packets received from higher layer, count"
scalar scenarioPRJP1.node[52].lo0.lo 	rcvdPkFromHL:sum(packetBytes) 	0
attr interpolationmode  none
attr source  packetReceivedFromUpper
attr title  "packets received from higher layer, sum(packetBytes)"
scalar scenarioPRJP1.node[52].lo0.lo 	passedUpPk:count 	0
attr interpolationmode  none
attr source  packetSentToUpper
attr title  "packets passed to higher layer, count"
scalar scenarioPRJP1.node[52].lo0.lo 	passedUpPk:sum(packetBytes) 	0
attr interpolationmode  none
attr source  packetSentToUpper
attr title  "packets passed to higher layer, sum(packetBytes)"
scalar scenarioPRJP1.node[3].app 	"Total sent" 	5007
scalar scenarioPRJP1.node[3].app 	"Total received" 	1077
scalar scenarioPRJP1.node[3].app 	"Total deleted" 	128
scalar scenarioPRJP1.node[3].app 	dropPk:count 	128
attr interpolationmode  none
attr source  dropPk
attr title  "packets dropped, count"
scalar scenarioPRJP1.node[3].app 	dropPk:sum(packetBytes) 	65536
attr interpolationmode  none
attr source  dropPk
attr title  "packets dropped, sum(packetBytes)"
scalar scenarioPRJP1.node[3].app 	outOfOrderPk:count 	1
attr interpolationmode  none
attr source  outOfOrderPk
attr title  "packets received out of order, count"
scalar scenarioPRJP1.node[3].app 	outOfOrderPk:sum(packetBytes) 	512
attr interpolationmode  none
attr source  outOfOrderPk
attr title  "packets received out of order, sum(packetBytes)"
scalar scenarioPRJP1.node[3].app 	rcvdPk:count 	1077
attr interpolationmode  none
attr source  rcvdPk
attr title  "packets received, count"
scalar scenarioPRJP1.node[3].app 	rcvdPk:sum(packetBytes) 	551424
attr interpolationmode  none
attr source  rcvdPk
attr title  "packets received, sum(packetBytes)"
statistic scenarioPRJP1.node[3].app 	endToEndDelay:histogram
field count 1077
field mean 4.1673828345692
field stddev 5.4651010108348
field sum 4488.271312831
field sqrsum 50841.590893064
field min 0.000891011007
field max 19.967336462582
attr interpolationmode  none
attr source  messageAge(rcvdPk)
attr title  "delay, histogram"
attr unit  s
bin	-INF	0
bin	-9.7279809111085	0
bin	-8.4307979190162	0
bin	-7.1336149269238	0
bin	-5.8364319348315	0
bin	-4.5392489427392	0
bin	-3.2420659506468	0
bin	-1.9448829585545	0
bin	-0.64769996646217	480
bin	0.64948302563017	93
bin	1.9466660177225	86
bin	3.2438490098148	65
bin	4.5410320019072	51
bin	5.8382149939995	40
bin	7.1353979860918	40
bin	8.4325809781842	30
bin	9.7297639702765	24
bin	11.026946962369	33
bin	12.324129954461	33
bin	13.621312946554	29
bin	14.918495938646	14
bin	16.215678930738	23
bin	17.512861922831	18
bin	18.810044914923	18
bin	20.107227907015	0
bin	21.404410899108	0
bin	22.7015938912	0
bin	23.998776883292	0
bin	25.295959875384	0
bin	26.593142867477	0
bin	27.890325859569	0
bin	29.187508851661	0
scalar scenarioPRJP1.node[3].app 	sentPk:count 	5007
attr interpolationmode  none
attr source  sentPk
attr title  "packets sent, count"
scalar scenarioPRJP1.node[3].app 	sentPk:sum(packetBytes) 	2563584
attr interpolationmode  none
attr source  sentPk
attr title  "packets sent, sum(packetBytes)"
scalar scenarioPRJP1.node[3].udp 	droppedPkBadChecksum:count 	0
attr interpolationmode  none
attr title  "packets dropped (checksum error), count"
scalar scenarioPRJP1.node[3].udp 	droppedPkWrongPort:count 	12
attr interpolationmode  none
attr title  "packets dropped (wrong port), count"
scalar scenarioPRJP1.node[3].udp 	passedUpPk:count 	1206
attr interpolationmode  none
attr title  "packets passed up, count"
scalar scenarioPRJP1.node[3].udp 	rcvdPk:count 	1218
attr interpolationmode  none
attr source  rcvdPk
attr title  "packets received, count"
scalar scenarioPRJP1.node[3].udp 	rcvdPk:sum(packetBytes) 	633360
attr interpolationmode  none
attr source  rcvdPk
attr title  "packets received, sum(packetBytes)"
scalar scenarioPRJP1.node[3].udp 	sentPk:count 	5007
attr interpolationmode  none
attr source  sentPk
attr title  "packets sent, count"
scalar scenarioPRJP1.node[3].udp 	sentPk:sum(packetBytes) 	2603640
attr interpolationmode  none
attr source  sentPk
attr title  "packets sent, sum(packetBytes)"
scalar scenarioPRJP1.node[3].networkLayer.arp 	failedARPResolution:count 	16
attr title  "ARP failed resolutions, count"
scalar scenarioPRJP1.node[3].networkLayer.arp 	completedARPResolution:count 	1561
attr title  "ARP completed resolutions, count"
scalar scenarioPRJP1.node[3].networkLayer.arp 	initiatedARPResolution:count 	145
attr title  "ARP initiated resolutions, count"
scalar scenarioPRJP1.node[3].networkLayer.arp 	sentReply:count 	111
attr title  "ARP replies sent, count"
scalar scenarioPRJP1.node[3].networkLayer.arp 	sentReq:count 	253
attr title  "ARP request sent, count"
scalar scenarioPRJP1.node[3].mobility 	startTime 	0.1
scalar scenarioPRJP1.node[3].mobility 	totalTime 	1833.1
scalar scenarioPRJP1.node[3].mobility 	stopTime 	1833.3
scalar scenarioPRJP1.node[3].mobility 	minSpeed 	2.4755840835299e-13
scalar scenarioPRJP1.node[3].mobility 	maxSpeed 	18.420237292964
scalar scenarioPRJP1.node[3].mobility 	totalDistance 	18979.639953532
scalar scenarioPRJP1.node[3].mobility 	totalCO2Emission 	5122.1099967198
scalar scenarioPRJP1.node[3].wlan.mgmt 	dataQueueLen:max 	33
attr interpolationmode  sample-hold
attr title  "data queue length, max"
scalar scenarioPRJP1.node[3].wlan.mgmt 	dataQueueLen:timeavg 	0.00087508195964216
attr interpolationmode  sample-hold
attr title  "data queue length, timeavg"
scalar scenarioPRJP1.node[3].wlan.mgmt 	dropPkByQueue:count 	0
attr interpolationmode  none
attr source  dropPkByQueue
attr title  "packets dropped by queue, count"
scalar scenarioPRJP1.node[3].wlan.mgmt 	dropPkByQueue:sum(packetBytes) 	0
attr interpolationmode  none
attr source  dropPkByQueue
attr title  "packets dropped by queue, sum(packetBytes)"
scalar scenarioPRJP1.node[3].wlan.mac 	"number of received packets" 	7945
scalar scenarioPRJP1.node[3].wlan.mac 	"number of collisions" 	121898
scalar scenarioPRJP1.node[3].wlan.mac 	"number of internal collisions" 	1
scalar scenarioPRJP1.node[3].wlan.mac 	"number of retry for AC 0" 	20704
scalar scenarioPRJP1.node[3].wlan.mac 	"number of retry for AC 1" 	30
scalar scenarioPRJP1.node[3].wlan.mac 	"number of retry for AC 2" 	0
scalar scenarioPRJP1.node[3].wlan.mac 	"number of retry for AC 3" 	0
scalar scenarioPRJP1.node[3].wlan.mac 	"sent and received bits" 	70640544
scalar scenarioPRJP1.node[3].wlan.mac 	"sent packet within AC 0" 	7440
scalar scenarioPRJP1.node[3].wlan.mac 	"sent packet within AC 1" 	27
scalar scenarioPRJP1.node[3].wlan.mac 	"sent packet within AC 2" 	0
scalar scenarioPRJP1.node[3].wlan.mac 	"sent packet within AC 3" 	0
scalar scenarioPRJP1.node[3].wlan.mac 	"sent in TXOP " 	0
scalar scenarioPRJP1.node[3].wlan.mac 	"sentWithoutRetry AC 0" 	4962
scalar scenarioPRJP1.node[3].wlan.mac 	"sentWithoutRetry AC 1" 	22
scalar scenarioPRJP1.node[3].wlan.mac 	"sentWithoutRetry AC 2" 	0
scalar scenarioPRJP1.node[3].wlan.mac 	"sentWithoutRetry AC 3" 	0
scalar scenarioPRJP1.node[3].wlan.mac 	"numGivenUp AC 0" 	2277
scalar scenarioPRJP1.node[3].wlan.mac 	"numGivenUp AC 1" 	3
scalar scenarioPRJP1.node[3].wlan.mac 	"numGivenUp AC 2" 	0
scalar scenarioPRJP1.node[3].wlan.mac 	"numGivenUp AC 3" 	0
scalar scenarioPRJP1.node[3].wlan.mac 	"numDropped AC 0" 	20
scalar scenarioPRJP1.node[3].wlan.mac 	"numDropped AC 1" 	0
scalar scenarioPRJP1.node[3].wlan.mac 	"numDropped AC 2" 	0
scalar scenarioPRJP1.node[3].wlan.mac 	"numDropped AC 3" 	0
scalar scenarioPRJP1.node[3].wlan.mac 	rcvdPkFromLL:count 	389939
attr interpolationmode  none
attr source  packetReceivedFromLower
attr title  "packets received from lower layer, count"
scalar scenarioPRJP1.node[3].wlan.mac 	rcvdPkFromLL:sum(packetBytes) 	128758017
attr interpolationmode  none
attr source  packetReceivedFromLower
attr title  "packets received from lower layer, sum(packetBytes)"
scalar scenarioPRJP1.node[3].wlan.mac 	sentDownPk:count 	67065
attr interpolationmode  none
attr source  packetSentToLower
attr title  "packets sent to lower layer, count"
scalar scenarioPRJP1.node[3].wlan.mac 	sentDownPk:sum(packetBytes) 	21964518
attr interpolationmode  none
attr source  packetSentToLower
attr title  "packets sent to lower layer, sum(packetBytes)"
scalar scenarioPRJP1.node[3].wlan.mac 	rcvdPkFromHL:count 	38407
attr interpolationmode  none
attr source  packetReceivedFromUpper
attr title  "packets received from higher layer, count"
scalar scenarioPRJP1.node[3].wlan.mac 	rcvdPkFromHL:sum(packetBytes) 	10137315
attr interpolationmode  none
attr source  packetReceivedFromUpper
attr title  "packets received from higher layer, sum(packetBytes)"
scalar scenarioPRJP1.node[3].wlan.mac 	passedUpPk:count 	124624
attr interpolationmode  none
attr source  packetSentToUpper
attr title  "packets passed to higher layer, count"
scalar scenarioPRJP1.node[3].wlan.mac 	passedUpPk:sum(packetBytes) 	23445366
attr interpolationmode  none
attr source  packetSentToUpper
attr title  "packets passed to higher layer, sum(packetBytes)"
statistic scenarioPRJP1.node[3].wlan.radio 	radioChannel:histogram
field count 1
field mean 3
field stddev -nan
field sum 3
field sqrsum 9
field min 3
field max 3
[...]
field max 3
attr interpolationmode  sample-hold
attr source  radioChannelChanged
attr title  "Radio channel, histogram"
bin	-INF	0
bin	2	0
bin	3	1
bin	4	0
scalar scenarioPRJP1.node[55].wlan.radio 	transmissionState:count 	245296
attr interpolationmode  sample-hold
attr source  transmissionStateChanged
attr title  "Radio transmission state, count"
scalar scenarioPRJP1.node[55].wlan.radio 	receptionState:count 	1638725
attr interpolationmode  sample-hold
attr source  receptionStateChanged
attr title  "Radio reception state, count"
scalar scenarioPRJP1.node[55].wlan.radio 	radioMode:count 	122650
attr interpolationmode  sample-hold
attr source  radioModeChanged
attr title  "Radio mode, count"
statistic scenarioPRJP1.node[55].wlan.radio 	symbolErrorRate:histogram
field count 0
field mean -nan
field stddev -nan
field sum 0
field sqrsum 0
field min -nan
field max -nan
attr source  symbolErrorRate
attr title  "Symbol error rate, histogram"
bin	-INF	0
bin	-0.5	0
bin	-0.46666666666667	0
bin	-0.43333333333333	0
bin	-0.4	0
bin	-0.36666666666667	0
bin	-0.33333333333333	0
bin	-0.3	0
bin	-0.26666666666667	0
bin	-0.23333333333333	0
bin	-0.2	0
bin	-0.16666666666667	0
bin	-0.13333333333333	0
bin	-0.1	0
bin	-0.066666666666667	0
bin	-0.033333333333333	0
bin	0	0
bin	0.033333333333333	0
bin	0.066666666666667	0
bin	0.1	0
bin	0.13333333333333	0
bin	0.16666666666667	0
bin	0.2	0
bin	0.23333333333333	0
bin	0.26666666666667	0
bin	0.3	0
bin	0.33333333333333	0
bin	0.36666666666667	0
bin	0.4	0
bin	0.43333333333333	0
bin	0.46666666666667	0
bin	0.5	0
statistic scenarioPRJP1.node[55].wlan.radio 	bitErrorRate:histogram
field count 0
field mean -nan
field stddev -nan
field sum 0
field sqrsum 0
field min -nan
field max -nan
attr source  bitErrorRate
attr title  "Bit error rate, histogram"
bin	-INF	0
bin	-0.5	0
bin	-0.46666666666667	0
bin	-0.43333333333333	0
bin	-0.4	0
bin	-0.36666666666667	0
bin	-0.33333333333333	0
bin	-0.3	0
bin	-0.26666666666667	0
bin	-0.23333333333333	0
bin	-0.2	0
bin	-0.16666666666667	0
bin	-0.13333333333333	0
bin	-0.1	0
bin	-0.066666666666667	0
bin	-0.033333333333333	0
bin	0	0
bin	0.033333333333333	0
bin	0.066666666666667	0
bin	0.1	0
bin	0.13333333333333	0
bin	0.16666666666667	0
bin	0.2	0
bin	0.23333333333333	0
bin	0.26666666666667	0
bin	0.3	0
bin	0.33333333333333	0
bin	0.36666666666667	0
bin	0.4	0
bin	0.43333333333333	0
bin	0.46666666666667	0
bin	0.5	0
statistic scenarioPRJP1.node[55].wlan.radio 	packetErrorRate:histogram
field count 353162
field mean 0.29771362663231
field stddev 0.44651672602266
field sum 105141.13980872
field sqrsum 101714.19664391
field min 0
field max 1
attr source  packetErrorRate
attr title  "Packet error rate, histogram"
bin	-INF	136576
bin	-2.1849189124623e-12	0
bin	-1.8935963908007e-12	0
bin	-1.602273869139e-12	0
bin	-1.3109513474774e-12	0
bin	-1.0196288258157e-12	0
bin	-7.283063041541e-13	0
bin	-4.3698378249246e-13	0
bin	-1.4566126083082e-13	164789
bin	1.4566126083082e-13	1114
bin	4.3698378249246e-13	1083
bin	7.283063041541e-13	362
bin	1.0196288258157e-12	516
bin	1.3109513474774e-12	410
bin	1.602273869139e-12	189
bin	1.8935963908007e-12	279
bin	2.1849189124623e-12	149
bin	2.4762414341239e-12	229
bin	2.7675639557856e-12	67
bin	3.0588864774472e-12	193
bin	3.3502089991089e-12	150
bin	3.6415315207705e-12	63
bin	3.9328540424322e-12	154
bin	4.2241765640938e-12	80
bin	4.5154990857554e-12	135
bin	4.8068216074171e-12	69
bin	5.0981441290787e-12	111
bin	5.3894666507404e-12	110
bin	5.680789172402e-12	50
bin	5.9721116940636e-12	116
bin	6.2634342157253e-12	43
bin	6.5547567373869e-12	46125
statistic scenarioPRJP1.node[55].wlan.radio 	minSNIR:histogram
field count 353162
field mean 4283.4242716513
field stddev 78043.566233355
field sum 1512742682.6249
field sqrsum 2.1575121125769e+15
field min 0.00011060697767414
field max 3573825.9985832
attr source  minSNIR
attr title  "Min SNIR, histogram"
bin	-INF	0
bin	-79084.687419698	0
bin	-68539.219883509	0
bin	-57993.752347321	0
bin	-47448.284811133	0
bin	-36902.817274945	0
bin	-26357.349738756	0
bin	-15811.882202568	0
bin	-5266.4146663796	338055
bin	5279.0528698087	8848
bin	15824.520405997	2176
bin	26369.987942185	808
bin	36915.455478374	415
bin	47460.923014562	392
bin	58006.39055075	201
bin	68551.858086938	170
bin	79097.325623127	162
bin	89642.793159315	255
bin	100188.2606955	79
bin	110733.72823169	84
bin	121279.19576788	154
bin	131824.66330407	37
bin	142370.13084026	55
bin	152915.59837644	44
bin	163461.06591263	53
bin	174006.53344882	85
bin	184552.00098501	44
bin	195097.4685212	16
bin	205642.93605739	17
bin	216188.40359357	13
bin	226733.87112976	12
bin	237279.33866595	987
scalar scenarioPRJP1.node[55].lo0.lo 	droppedPkBitError:count 	0
attr interpolationmode  none
attr source  dropPkBitError
attr title  "packets dropped/bit error, count"
scalar scenarioPRJP1.node[55].lo0.lo 	droppedPkBitError:sum(packetBytes) 	0
attr interpolationmode  none
attr source  dropPkBitError
attr title  "packets dropped/bit error, sum(packetBytes)"
scalar scenarioPRJP1.node[55].lo0.lo 	rcvdPkFromHL:count 	0
attr interpolationmode  none
attr source  packetReceivedFromUpper
attr title  "packets received from higher layer, count"
scalar scenarioPRJP1.node[55].lo0.lo 	rcvdPkFromHL:sum(packetBytes) 	0
attr interpolationmode  none
attr source  packetReceivedFromUpper
attr title  "packets received from higher layer, sum(packetBytes)"
scalar scenarioPRJP1.node[55].lo0.lo 	passedUpPk:count 	0
attr interpolationmode  none
attr source  packetSentToUpper
attr title  "packets passed to higher layer, count"
scalar scenarioPRJP1.node[55].lo0.lo 	passedUpPk:sum(packetBytes) 	0
attr interpolationmode  none
attr source  packetSentToUpper
attr title  "packets passed to higher layer, sum(packetBytes)"
scalar scenarioPRJP1.node[70].app 	"Total sent" 	5010
scalar scenarioPRJP1.node[70].app 	"Total received" 	974
scalar scenarioPRJP1.node[70].app 	"Total deleted" 	158
scalar scenarioPRJP1.node[70].app 	dropPk:count 	158
attr interpolationmode  none
attr source  dropPk
attr title  "packets dropped, count"
scalar scenarioPRJP1.node[70].app 	dropPk:sum(packetBytes) 	80896
attr interpolationmode  none
attr source  dropPk
attr title  "packets dropped, sum(packetBytes)"
scalar scenarioPRJP1.node[70].app 	outOfOrderPk:count 	4
attr interpolationmode  none
attr source  outOfOrderPk
attr title  "packets received out of order, count"
scalar scenarioPRJP1.node[70].app 	outOfOrderPk:sum(packetBytes) 	2048
attr interpolationmode  none
attr source  outOfOrderPk
attr title  "packets received out of order, sum(packetBytes)"
scalar scenarioPRJP1.node[70].app 	rcvdPk:count 	974
attr interpolationmode  none
attr source  rcvdPk
attr title  "packets received, count"
scalar scenarioPRJP1.node[70].app 	rcvdPk:sum(packetBytes) 	498688
attr interpolationmode  none
attr source  rcvdPk
attr title  "packets received, sum(packetBytes)"
statistic scenarioPRJP1.node[70].app 	endToEndDelay:histogram
field count 974
field mean 4.0329041690912
field stddev 5.4029436536061
field sum 3928.0486606948
field sqrsum 44245.065340803
field min 0.000891016107
field max 19.678067824884
attr interpolationmode  none
attr source  messageAge(rcvdPk)
attr title  "delay, histogram"
attr unit  s
bin	-INF	0
bin	-9.33258571431	0
bin	-8.0881221502544	0
bin	-6.8436585861988	0
bin	-5.5991950221432	0
bin	-4.3547314580876	0
bin	-3.110267894032	0
bin	-1.8658043299764	0
bin	-0.6213407659208	444
bin	0.6231227981348	89
bin	1.8675863621904	67
bin	3.112049926246	58
bin	4.3565134903016	36
bin	5.6009770543572	43
bin	6.8454406184128	25
bin	8.0899041824684	33
bin	9.334367746524	35
bin	10.57883131058	12
bin	11.823294874635	27
bin	13.067758438691	25
bin	14.312222002746	18
bin	15.556685566802	28
bin	16.801149130858	11
bin	18.045612694913	17
bin	19.290076258969	6
bin	20.534539823024	0
bin	21.77900338708	0
bin	23.023466951136	0
bin	24.267930515191	0
bin	25.512394079247	0
bin	26.756857643302	0
bin	28.001321207358	0
scalar scenarioPRJP1.node[70].app 	sentPk:count 	5010
attr interpolationmode  none
attr source  sentPk
attr title  "packets sent, count"
scalar scenarioPRJP1.node[70].app 	sentPk:sum(packetBytes) 	2565120
attr interpolationmode  none
attr source  sentPk
attr title  "packets sent, sum(packetBytes)"
scalar scenarioPRJP1.node[70].udp 	droppedPkBadChecksum:count 	0
attr interpolationmode  none
attr title  "packets dropped (checksum error), count"
scalar scenarioPRJP1.node[70].udp 	droppedPkWrongPort:count 	8
attr interpolationmode  none
attr title  "packets dropped (wrong port), count"
scalar scenarioPRJP1.node[70].udp 	passedUpPk:count 	1136
attr interpolationmode  none
attr title  "packets passed up, count"
scalar scenarioPRJP1.node[70].udp 	rcvdPk:count 	1144
attr interpolationmode  none
attr source  rcvdPk
attr title  "packets received, count"
scalar scenarioPRJP1.node[70].udp 	rcvdPk:sum(packetBytes) 	594880
attr interpolationmode  none
attr source  rcvdPk
attr title  "packets received, sum(packetBytes)"
scalar scenarioPRJP1.node[70].udp 	sentPk:count 	5010
attr interpolationmode  none
attr source  sentPk
attr title  "packets sent, count"
scalar scenarioPRJP1.node[70].udp 	sentPk:sum(packetBytes) 	2605200
attr interpolationmode  none
attr source  sentPk
attr title  "packets sent, sum(packetBytes)"
scalar scenarioPRJP1.node[70].networkLayer.arp 	failedARPResolution:count 	16
attr title  "ARP failed resolutions, count"
scalar scenarioPRJP1.node[70].networkLayer.arp 	completedARPResolution:count 	1422
attr title  "ARP completed resolutions, count"
scalar scenarioPRJP1.node[70].networkLayer.arp 	initiatedARPResolution:count 	147
attr title  "ARP initiated resolutions, count"
scalar scenarioPRJP1.node[70].networkLayer.arp 	sentReply:count 	105
attr title  "ARP replies sent, count"
scalar scenarioPRJP1.node[70].networkLayer.arp 	sentReq:count 	272
attr title  "ARP request sent, count"
scalar scenarioPRJP1.node[70].mobility 	startTime 	7.3
scalar scenarioPRJP1.node[70].mobility 	totalTime 	1892.7
scalar scenarioPRJP1.node[70].mobility 	stopTime 	1900
scalar scenarioPRJP1.node[70].mobility 	minSpeed 	2.4754213355665e-13
scalar scenarioPRJP1.node[70].mobility 	maxSpeed 	17.512207428786
scalar scenarioPRJP1.node[70].mobility 	totalDistance 	18757.069650549
scalar scenarioPRJP1.node[70].mobility 	totalCO2Emission 	4997.3852761559
scalar scenarioPRJP1.node[70].wlan.mgmt 	dataQueueLen:max 	61
attr interpolationmode  sample-hold
attr title  "data queue length, max"
scalar scenarioPRJP1.node[70].wlan.mgmt 	dataQueueLen:timeavg 	0.00091793845011412
attr interpolationmode  sample-hold
attr title  "data queue length, timeavg"
scalar scenarioPRJP1.node[70].wlan.mgmt 	dropPkByQueue:count 	0
attr interpolationmode  none
attr source  dropPkByQueue
attr title  "packets dropped by queue, count"
scalar scenarioPRJP1.node[70].wlan.mgmt 	dropPkByQueue:sum(packetBytes) 	0
attr interpolationmode  none
attr source  dropPkByQueue
attr title  "packets dropped by queue, sum(packetBytes)"
scalar scenarioPRJP1.node[70].wlan.mac 	"number of received packets" 	6201
scalar scenarioPRJP1.node[70].wlan.mac 	"number of collisions" 	108558
scalar scenarioPRJP1.node[70].wlan.mac 	"number of internal collisions" 	1
scalar scenarioPRJP1.node[70].wlan.mac 	"number of retry for AC 0" 	16894
scalar scenarioPRJP1.node[70].wlan.mac 	"number of retry for AC 1" 	7
scalar scenarioPRJP1.node[70].wlan.mac 	"number of retry for AC 2" 	0
scalar scenarioPRJP1.node[70].wlan.mac 	"number of retry for AC 3" 	0
scalar scenarioPRJP1.node[70].wlan.mac 	"sent and received bits" 	64270904
scalar scenarioPRJP1.node[70].wlan.mac 	"sent packet within AC 0" 	6234
scalar scenarioPRJP1.node[70].wlan.mac 	"sent packet within AC 1" 	11
scalar scenarioPRJP1.node[70].wlan.mac 	"sent packet within AC 2" 	0
scalar scenarioPRJP1.node[70].wlan.mac 	"sent packet within AC 3" 	0
scalar scenarioPRJP1.node[70].wlan.mac 	"sent in TXOP " 	0
scalar scenarioPRJP1.node[70].wlan.mac 	"sentWithoutRetry AC 0" 	4184
scalar scenarioPRJP1.node[70].wlan.mac 	"sentWithoutRetry AC 1" 	7
scalar scenarioPRJP1.node[70].wlan.mac 	"sentWithoutRetry AC 2" 	0
scalar scenarioPRJP1.node[70].wlan.mac 	"sentWithoutRetry AC 3" 	0
scalar scenarioPRJP1.node[70].wlan.mac 	"numGivenUp AC 0" 	1848
scalar scenarioPRJP1.node[70].wlan.mac 	"numGivenUp AC 1" 	0
scalar scenarioPRJP1.node[70].wlan.mac 	"numGivenUp AC 2" 	0
scalar scenarioPRJP1.node[70].wlan.mac 	"numGivenUp AC 3" 	0
scalar scenarioPRJP1.node[70].wlan.mac 	"numDropped AC 0" 	10
scalar scenarioPRJP1.node[70].wlan.mac 	"numDropped AC 1" 	0
scalar scenarioPRJP1.node[70].wlan.mac 	"numDropped AC 2" 	0
scalar scenarioPRJP1.node[70].wlan.mac 	"numDropped AC 3" 	0
scalar scenarioPRJP1.node[70].wlan.mac 	rcvdPkFromLL:count 	352325
attr interpolationmode  none
attr source  packetReceivedFromLower
attr title  "packets received from lower layer, count"
scalar scenarioPRJP1.node[70].wlan.mac 	rcvdPkFromLL:sum(packetBytes) 	116143431
attr interpolationmode  none
attr source  packetReceivedFromLower
attr title  "packets received from lower layer, sum(packetBytes)"
scalar scenarioPRJP1.node[70].wlan.mac 	sentDownPk:count 	59444
attr interpolationmode  none
attr source  packetSentToLower
attr title  "packets sent to lower layer, count"
scalar scenarioPRJP1.node[70].wlan.mac 	sentDownPk:sum(packetBytes) 	18721110
attr interpolationmode  none
attr source  packetSentToLower
attr title  "packets sent to lower layer, sum(packetBytes)"
scalar scenarioPRJP1.node[70].wlan.mac 	rcvdPkFromHL:count 	36353
attr interpolationmode  none
attr source  packetReceivedFromUpper
attr title  "packets received from higher layer, count"
scalar scenarioPRJP1.node[70].wlan.mac 	rcvdPkFromHL:sum(packetBytes) 	9089876
attr interpolationmode  none
attr source  packetReceivedFromUpper
attr title  "packets received from higher layer, sum(packetBytes)"
scalar scenarioPRJP1.node[70].wlan.mac 	passedUpPk:count 	114810
attr interpolationmode  none
attr source  packetSentToUpper
attr title  "packets passed to higher layer, count"
scalar scenarioPRJP1.node[70].wlan.mac 	passedUpPk:sum(packetBytes) 	20983709
attr interpolationmode  none
attr source  packetSentToUpper
attr title  "packets passed to higher layer, sum(packetBytes)"
statistic scenarioPRJP1.node[70].wlan.radio 	radioChannel:histogram
field count 1
field mean 3
field stddev -nan
field sum 3
field sqrsum 9
field min 3
field max 3
attr interpolationmode  sample-hold
attr source  radioChannelChanged
attr title  "Radio channel, histogram"
bin	-INF	0
bin	2	0
bin	3	1
bin	4	0
scalar scenarioPRJP1.node[70].wlan.radio 	transmissionState:count 	237776
attr interpolationmode  sample-hold
attr source  transmissionStateChanged
attr title  "Radio transmission state, count"
scalar scenarioPRJP1.node[70].wlan.radio 	receptionState:count 	1710217
attr interpolationmode  sample-hold
attr source  receptionStateChanged
attr title  "Radio reception state, count"
scalar scenarioPRJP1.node[70].wlan.radio 	radioMode:count 	118890
attr interpolationmode  sample-hold
attr source  radioModeChanged
attr title  "Radio mode, count"
statistic scenarioPRJP1.node[70].wlan.radio 	symbolErrorRate:histogram
field count 0
field mean -nan
field stddev -nan
field sum 0
field sqrsum 0
field min -nan
field max -nan
attr source  symbolErrorRate
attr title  "Symbol error rate, histogram"
bin	-INF	0
bin	-0.5	0
bin	-0.46666666666667	0
bin	-0.43333333333333	0
bin	-0.4	0
bin	-0.36666666666667	0
bin	-0.33333333333333	0
bin	-0.3	0
bin	-0.26666666666667	0
bin	-0.23333333333333	0
bin	-0.2	0
bin	-0.16666666666667	0
bin	-0.13333333333333	0
bin	-0.1	0
bin	-0.066666666666667	0
bin	-0.033333333333333	0
bin	0	0
bin	0.033333333333333	0
bin	0.066666666666667	0
bin	0.1	0
bin	0.13333333333333	0
bin	0.16666666666667	0
bin	0.2	0
bin	0.23333333333333	0
bin	0.26666666666667	0
bin	0.3	0
bin	0.33333333333333	0
bin	0.36666666666667	0
bin	0.4	0
bin	0.43333333333333	0
bin	0.46666666666667	0
bin	0.5	0
statistic scenarioPRJP1.node[70].wlan.radio 	bitErrorRate:histogram
field count 0
field mean -nan
field stddev -nan
field sum 0
field sqrsum 0
field min -nan
field max -nan
attr source  bitErrorRate
attr title  "Bit error rate, histogram"
bin	-INF	0
bin	-0.5	0
bin	-0.46666666666667	0
bin	-0.43333333333333	0
bin	-0.4	0
bin	-0.36666666666667	0
bin	-0.33333333333333	0
bin	-0.3	0
bin	-0.26666666666667	0
bin	-0.23333333333333	0
bin	-0.2	0
bin	-0.16666666666667	0
bin	-0.13333333333333	0
bin	-0.1	0
bin	-0.066666666666667	0
bin	-0.033333333333333	0
bin	0	0
bin	0.033333333333333	0
bin	0.066666666666667	0
bin	0.1	0
bin	0.13333333333333	0
bin	0.16666666666667	0
bin	0.2	0
bin	0.23333333333333	0
bin	0.26666666666667	0
bin	0.3	0
bin	0.33333333333333	0
bin	0.36666666666667	0
bin	0.4	0
bin	0.43333333333333	0
bin	0.46666666666667	0
bin	0.5	0
statistic scenarioPRJP1.node[70].wlan.radio 	packetErrorRate:histogram
field count 352325
field mean 0.27898187488127
field stddev 0.43695468242183
field sum 98292.289067544
field sqrsum 94690.775074858
field min 0
field max 1
attr source  packetErrorRate
attr title  "Packet error rate, histogram"
bin	-INF	101521
bin	-9.2050633782037e-10	0
bin	-7.9777215944432e-10	0
bin	-6.7503798106827e-10	0
bin	-5.5230380269222e-10	0
bin	-4.2956962431617e-10	0
bin	-3.0683544594012e-10	0
bin	-1.8410126756407e-10	0
bin	-6.1367089188025e-11	173620
bin	6.1367089188025e-11	2193
bin	1.8410126756407e-10	1034
bin	3.0683544594012e-10	699
bin	4.2956962431617e-10	524
bin	5.5230380269222e-10	396
bin	6.7503798106827e-10	350
bin	7.9777215944432e-10	317
bin	9.2050633782037e-10	283
bin	1.0432405161964e-09	225
bin	1.1659746945725e-09	244
bin	1.2887088729485e-09	195
bin	1.4114430513246e-09	193
bin	1.5341772297006e-09	180
bin	1.6569114080767e-09	164
bin	1.7796455864527e-09	152
bin	1.9023797648288e-09	128
bin	2.0251139432048e-09	131
bin	2.1478481215809e-09	136
bin	2.2705822999569e-09	93
bin	2.393316478333e-09	121
bin	2.516050656709e-09	106
bin	2.6387848350851e-09	119
bin	2.7615190134611e-09	69201
statistic scenarioPRJP1.node[70].wlan.radio 	minSNIR:histogram
field count 352325
field mean 4811.8533525179
field stddev 91158.142033989
field sum 1695336232.4259
field sqrsum 2.9359021011553e+15
field min 0.00011351336930817
field max 3434307.1628522
attr source  minSNIR
attr title  "Min SNIR, histogram"
bin	-INF	0
bin	-86602.14495543	0
bin	-75054.499210909	0
bin	-63506.853466387	0
bin	-51959.207721866	0
bin	-40411.561977344	0
bin	-28863.916232823	0
bin	-17316.270488301	0
bin	-5768.62474378	338192
bin	5779.0210007414	8487
bin	17326.666745263	2003
bin	28874.312489784	694
bin	40421.958234306	414
bin	51969.603978827	451
bin	63517.249723349	166
bin	75064.89546787	197
bin	86612.541212392	303
bin	98160.186956913	62
bin	109707.83270143	57
bin	121255.47844596	52
bin	132803.12419048	31
bin	144350.769935	53
bin	155898.41567952	48
bin	167446.06142404	19
bin	178993.70716856	31
bin	190541.35291308	24
bin	202088.99865761	8
bin	213636.64440213	49
bin	225184.29014665	6
bin	236731.93589117	18
bin	248279.58163569	9
bin	259827.22738021	951
scalar scenarioPRJP1.node[70].lo0.lo 	droppedPkBitError:count 	0
attr interpolationmode  none
attr source  dropPkBitError
attr title  "packets dropped/bit error, count"
scalar scenarioPRJP1.node[70].lo0.lo 	droppedPkBitError:sum(packetBytes) 	0
attr interpolationmode  none
attr source  dropPkBitError
attr title  "packets dropped/bit error, sum(packetBytes)"
scalar scenarioPRJP1.node[70].lo0.lo 	rcvdPkFromHL:count 	1
attr interpolationmode  none
attr source  packetReceivedFromUpper
attr title  "packets received from higher layer, count"
scalar scenarioPRJP1.node[70].lo0.lo 	rcvdPkFromHL:sum(packetBytes) 	56
attr interpolationmode  none
attr source  packetReceivedFromUpper
attr title  "packets received from higher layer, sum(packetBytes)"
scalar scenarioPRJP1.node[70].lo0.lo 	passedUpPk:count 	1
attr interpolationmode  none
attr source  packetSentToUpper
attr title  "packets passed to higher layer, count"
scalar scenarioPRJP1.node[70].lo0.lo 	passedUpPk:sum(packetBytes) 	56
attr interpolationmode  none
attr source  packetSentToUpper
attr title  "packets passed to higher layer, sum(packetBytes)"
