version 2
run DYMOUM-FS-75-13-20150614-01:49:46-4561
attr configname DYMOUM-FS-75
attr datetime 20150614-01:49:46
attr experiment DYMOUM-FS-75
attr inifile omnetpp.ini
attr iterationvars ""
attr iterationvars2 $repetition=13
attr measurement ""
attr network Prj_Part1_propag.scenarioPRJP1
attr processid 4561
attr repetition 13
attr replication #13
attr resultdir results
attr runnumber 13
attr seedset 13

scalar scenarioPRJP1.node[64].app 	"Total sent" 	4610
scalar scenarioPRJP1.node[64].app 	"Total received" 	990
scalar scenarioPRJP1.node[64].app 	"Total deleted" 	131
scalar scenarioPRJP1.node[64].app 	dropPk:count 	131
attr interpolationmode  none
attr source  dropPk
attr title  "packets dropped, count"
scalar scenarioPRJP1.node[64].app 	dropPk:sum(packetBytes) 	67072
attr interpolationmode  none
attr source  dropPk
attr title  "packets dropped, sum(packetBytes)"
scalar scenarioPRJP1.node[64].app 	outOfOrderPk:count 	0
attr interpolationmode  none
attr source  outOfOrderPk
attr title  "packets received out of order, count"
scalar scenarioPRJP1.node[64].app 	outOfOrderPk:sum(packetBytes) 	0
attr interpolationmode  none
attr source  outOfOrderPk
attr title  "packets received out of order, sum(packetBytes)"
scalar scenarioPRJP1.node[64].app 	rcvdPk:count 	990
attr interpolationmode  none
attr source  rcvdPk
attr title  "packets received, count"
scalar scenarioPRJP1.node[64].app 	rcvdPk:sum(packetBytes) 	506880
attr interpolationmode  none
attr source  rcvdPk
attr title  "packets received, sum(packetBytes)"
statistic scenarioPRJP1.node[64].app 	endToEndDelay:histogram
field count 990
field mean 4.3088987006221
field stddev 5.62091213802
field sum 4265.8097136159
field sqrsum 49628.054009545
field min 0.000891022764
field max 19.867666880735
attr interpolationmode  none
attr source  messageAge(rcvdPk)
attr title  "delay, histogram"
attr unit  s
bin	-INF	0
bin	-9.863247922299	0
bin	-8.5480293744582	0
bin	-7.2328108266174	0
bin	-5.9175922787766	0
bin	-4.6023737309358	0
bin	-3.287155183095	0
bin	-1.9719366352542	0
bin	-0.6567180874134	450
bin	0.6585004604274	81
bin	1.9737190082682	73
bin	3.288937556109	55
bin	4.6041561039498	43
bin	5.9193746517906	39
bin	7.2345931996314	25
bin	8.5498117474722	30
bin	9.865030295313	34
bin	11.180248843154	36
bin	12.495467390995	22
bin	13.810685938835	24
bin	15.125904486676	28
bin	16.441123034517	20
bin	17.756341582358	15
bin	19.071560130199	15
bin	20.386778678039	0
bin	21.70199722588	0
bin	23.017215773721	0
bin	24.332434321562	0
bin	25.647652869403	0
bin	26.962871417243	0
bin	28.278089965084	0
bin	29.593308512925	0
scalar scenarioPRJP1.node[64].app 	sentPk:count 	4610
attr interpolationmode  none
attr source  sentPk
attr title  "packets sent, count"
scalar scenarioPRJP1.node[64].app 	sentPk:sum(packetBytes) 	2360320
attr interpolationmode  none
attr source  sentPk
attr title  "packets sent, sum(packetBytes)"
scalar scenarioPRJP1.node[64].udp 	droppedPkBadChecksum:count 	0
attr interpolationmode  none
attr title  "packets dropped (checksum error), count"
scalar scenarioPRJP1.node[64].udp 	droppedPkWrongPort:count 	0
attr interpolationmode  none
attr title  "packets dropped (wrong port), count"
scalar scenarioPRJP1.node[64].udp 	passedUpPk:count 	1121
attr interpolationmode  none
attr title  "packets passed up, count"
scalar scenarioPRJP1.node[64].udp 	rcvdPk:count 	1121
attr interpolationmode  none
attr source  rcvdPk
attr title  "packets received, count"
scalar scenarioPRJP1.node[64].udp 	rcvdPk:sum(packetBytes) 	582920
attr interpolationmode  none
attr source  rcvdPk
attr title  "packets received, sum(packetBytes)"
scalar scenarioPRJP1.node[64].udp 	sentPk:count 	4610
attr interpolationmode  none
attr source  sentPk
attr title  "packets sent, count"
scalar scenarioPRJP1.node[64].udp 	sentPk:sum(packetBytes) 	2397200
attr interpolationmode  none
attr source  sentPk
attr title  "packets sent, sum(packetBytes)"
scalar scenarioPRJP1.node[64].networkLayer.arp 	failedARPResolution:count 	21
attr title  "ARP failed resolutions, count"
scalar scenarioPRJP1.node[64].networkLayer.arp 	completedARPResolution:count 	1379
attr title  "ARP completed resolutions, count"
scalar scenarioPRJP1.node[64].networkLayer.arp 	initiatedARPResolution:count 	131
attr title  "ARP initiated resolutions, count"
scalar scenarioPRJP1.node[64].networkLayer.arp 	sentReply:count 	126
attr title  "ARP replies sent, count"
scalar scenarioPRJP1.node[64].networkLayer.arp 	sentReq:count 	225
attr title  "ARP request sent, count"
scalar scenarioPRJP1.node[64].manetrouting 	"simulated time" 	1651.1
scalar scenarioPRJP1.node[64].manetrouting 	"Dymo totalSend " 	4444412
scalar scenarioPRJP1.node[64].manetrouting 	"Dymo Rreq send" 	2406949
scalar scenarioPRJP1.node[64].manetrouting 	"Dymo Rreq rec" 	1957835
scalar scenarioPRJP1.node[64].manetrouting 	"Dymo Rrep send" 	11883
scalar scenarioPRJP1.node[64].manetrouting 	"Dymo Rrep rec" 	7699
scalar scenarioPRJP1.node[64].manetrouting 	"Dymo Rerr send" 	22104
scalar scenarioPRJP1.node[64].manetrouting 	"Dymo Rerr rec" 	71474
scalar scenarioPRJP1.node[64].mobility 	startTime 	7.3
scalar scenarioPRJP1.node[64].mobility 	totalTime 	1643.7
scalar scenarioPRJP1.node[64].mobility 	stopTime 	1651.1
scalar scenarioPRJP1.node[64].mobility 	minSpeed 	2.476040982314e-13
scalar scenarioPRJP1.node[64].mobility 	maxSpeed 	18.810598298219
scalar scenarioPRJP1.node[64].mobility 	totalDistance 	18205.167167643
scalar scenarioPRJP1.node[64].mobility 	totalCO2Emission 	4816.4693339132
scalar scenarioPRJP1.node[64].wlan.mgmt 	dataQueueLen:max 	64
attr interpolationmode  sample-hold
attr title  "data queue length, max"
scalar scenarioPRJP1.node[64].wlan.mgmt 	dataQueueLen:timeavg 	0.0082581412448339
attr interpolationmode  sample-hold
attr title  "data queue length, timeavg"
scalar scenarioPRJP1.node[64].wlan.mgmt 	dropPkByQueue:count 	0
attr interpolationmode  none
attr source  dropPkByQueue
attr title  "packets dropped by queue, count"
scalar scenarioPRJP1.node[64].wlan.mgmt 	dropPkByQueue:sum(packetBytes) 	0
attr interpolationmode  none
attr source  dropPkByQueue
attr title  "packets dropped by queue, sum(packetBytes)"
scalar scenarioPRJP1.node[64].wlan.mac 	"number of received packets" 	6792
scalar scenarioPRJP1.node[64].wlan.mac 	"number of collisions" 	109071
scalar scenarioPRJP1.node[64].wlan.mac 	"number of internal collisions" 	0
scalar scenarioPRJP1.node[64].wlan.mac 	"number of retry for AC 0" 	17945
scalar scenarioPRJP1.node[64].wlan.mac 	"number of retry for AC 1" 	0
scalar scenarioPRJP1.node[64].wlan.mac 	"number of retry for AC 2" 	0
scalar scenarioPRJP1.node[64].wlan.mac 	"number of retry for AC 3" 	0
scalar scenarioPRJP1.node[64].wlan.mac 	"sent and received bits" 	64261056
scalar scenarioPRJP1.node[64].wlan.mac 	"sent packet within AC 0" 	6756
scalar scenarioPRJP1.node[64].wlan.mac 	"sent packet within AC 1" 	1
scalar scenarioPRJP1.node[64].wlan.mac 	"sent packet within AC 2" 	0
scalar scenarioPRJP1.node[64].wlan.mac 	"sent packet within AC 3" 	0
scalar scenarioPRJP1.node[64].wlan.mac 	"sent in TXOP " 	0
scalar scenarioPRJP1.node[64].wlan.mac 	"sentWithoutRetry AC 0" 	4435
scalar scenarioPRJP1.node[64].wlan.mac 	"sentWithoutRetry AC 1" 	1
scalar scenarioPRJP1.node[64].wlan.mac 	"sentWithoutRetry AC 2" 	0
scalar scenarioPRJP1.node[64].wlan.mac 	"sentWithoutRetry AC 3" 	0
scalar scenarioPRJP1.node[64].wlan.mac 	"numGivenUp AC 0" 	1909
scalar scenarioPRJP1.node[64].wlan.mac 	"numGivenUp AC 1" 	0
scalar scenarioPRJP1.node[64].wlan.mac 	"numGivenUp AC 2" 	0
scalar scenarioPRJP1.node[64].wlan.mac 	"numGivenUp AC 3" 	0
scalar scenarioPRJP1.node[64].wlan.mac 	"numDropped AC 0" 	50
scalar scenarioPRJP1.node[64].wlan.mac 	"numDropped AC 1" 	0
scalar scenarioPRJP1.node[64].wlan.mac 	"numDropped AC 2" 	0
scalar scenarioPRJP1.node[64].wlan.mac 	"numDropped AC 3" 	0
scalar scenarioPRJP1.node[64].wlan.mac 	rcvdPkFromLL:count 	350339
attr interpolationmode  none
attr source  packetReceivedFromLower
attr title  "packets received from lower layer, count"
scalar scenarioPRJP1.node[64].wlan.mac 	rcvdPkFromLL:sum(packetBytes) 	116082451
attr interpolationmode  none
attr source  packetReceivedFromLower
attr title  "packets received from lower layer, sum(packetBytes)"
scalar scenarioPRJP1.node[64].wlan.mac 	sentDownPk:count 	59302
attr interpolationmode  none
attr source  packetSentToLower
attr title  "packets sent to lower layer, count"
scalar scenarioPRJP1.node[64].wlan.mac 	sentDownPk:sum(packetBytes) 	19364001
attr interpolationmode  none
attr source  packetSentToLower
attr title  "packets sent to lower layer, sum(packetBytes)"
scalar scenarioPRJP1.node[64].wlan.mac 	rcvdPkFromHL:count 	34615
attr interpolationmode  none
attr source  packetReceivedFromUpper
attr title  "packets received from higher layer, count"
scalar scenarioPRJP1.node[64].wlan.mac 	rcvdPkFromHL:sum(packetBytes) 	9146253
attr interpolationmode  none
attr source  packetReceivedFromUpper
attr title  "packets received from higher layer, sum(packetBytes)"
scalar scenarioPRJP1.node[64].wlan.mac 	passedUpPk:count 	113802
attr interpolationmode  none
attr source  packetSentToUpper
attr title  "packets passed to higher layer, count"
scalar scenarioPRJP1.node[64].wlan.mac 	passedUpPk:sum(packetBytes) 	21040229
attr interpolationmode  none
attr source  packetSentToUpper
attr title  "packets passed to higher layer, sum(packetBytes)"
statistic scenarioPRJP1.node[64].wlan.radio 	radioChannel:histogram
field count 1
field mean 3
field stddev -nan
field sum 3
field sqrsum 9
field min 3
field max 3
attr interpolationmode  sample-hold
attr source  radioChannelChanged
attr title  "Radio channel, histogram"
bin	-INF	0
bin	2	0
bin	3	1
bin	4	0
scalar scenarioPRJP1.node[64].wlan.radio 	transmissionState:count 	237208
attr interpolationmode  sample-hold
attr source  transmissionStateChanged
attr title  "Radio transmission state, count"
scalar scenarioPRJP1.node[64].wlan.radio 	receptionState:count 	1550432
attr interpolationmode  sample-hold
attr source  receptionStateChanged
attr title  "Radio reception state, count"
scalar scenarioPRJP1.node[64].wlan.radio 	radioMode:count 	118606
attr interpolationmode  sample-hold
attr source  radioModeChanged
attr title  "Radio mode, count"
statistic scenarioPRJP1.node[64].wlan.radio 	symbolErrorRate:histogram
field count 0
field mean -nan
field stddev -nan
field sum 0
field sqrsum 0
field min -nan
field max -nan
attr source  symbolErrorRate
attr title  "Symbol error rate, histogram"
bin	-INF	0
bin	-0.5	0
bin	-0.46666666666667	0
bin	-0.43333333333333	0
bin	-0.4	0
bin	-0.36666666666667	0
bin	-0.33333333333333	0
bin	-0.3	0
bin	-0.26666666666667	0
bin	-0.23333333333333	0
bin	-0.2	0
bin	-0.16666666666667	0
bin	-0.13333333333333	0
bin	-0.1	0
bin	-0.066666666666667	0
bin	-0.033333333333333	0
bin	0	0
bin	0.033333333333333	0
bin	0.066666666666667	0
bin	0.1	0
bin	0.13333333333333	0
bin	0.16666666666667	0
bin	0.2	0
bin	0.23333333333333	0
bin	0.26666666666667	0
bin	0.3	0
bin	0.33333333333333	0
bin	0.36666666666667	0
bin	0.4	0
bin	0.43333333333333	0
bin	0.46666666666667	0
bin	0.5	0
statistic scenarioPRJP1.node[64].wlan.radio 	bitErrorRate:histogram
field count 0
field mean -nan
field stddev -nan
field sum 0
field sqrsum 0
field min -nan
field max -nan
attr source  bitErrorRate
attr title  "Bit error rate, histogram"
bin	-INF	0
bin	-0.5	0
bin	-0.46666666666667	0
bin	-0.43333333333333	0
bin	-0.4	0
bin	-0.36666666666667	0
bin	-0.33333333333333	0
bin	-0.3	0
bin	-0.26666666666667	0
bin	-0.23333333333333	0
bin	-0.2	0
bin	-0.16666666666667	0
bin	-0.13333333333333	0
bin	-0.1	0
bin	-0.066666666666667	0
bin	-0.033333333333333	0
bin	0	0
bin	0.033333333333333	0
bin	0.066666666666667	0
bin	0.1	0
bin	0.13333333333333	0
bin	0.16666666666667	0
bin	0.2	0
bin	0.23333333333333	0
bin	0.26666666666667	0
bin	0.3	0
bin	0.33333333333333	0
bin	0.36666666666667	0
bin	0.4	0
bin	0.43333333333333	0
bin	0.46666666666667	0
bin	0.5	0
statistic scenarioPRJP1.node[64].wlan.radio 	packetErrorRate:histogram
field count 350339
field mean 0.28314472325097
field stddev 0.43942401249909
field sum 99196.639199021
field sqrsum 95734.982510126
field min 0
field max 1
attr source  packetErrorRate
attr title  "Packet error rate, histogram"
bin	-INF	0
bin	-0.5	0
bin	-0.43333333333333	0
bin	-0.36666666666667	0
bin	-0.3	0
bin	-0.23333333333333	0
bin	-0.16666666666667	0
bin	-0.1	0
bin	-0.033333333333333	237063
bin	0.033333333333333	5557
bin	0.1	2802
bin	0.16666666666667	1956
bin	0.23333333333333	1529
bin	0.3	1250
bin	0.36666666666667	1053
bin	0.43333333333333	1027
bin	0.5	899
bin	0.56666666666667	951
bin	0.63333333333333	914
bin	0.7	950
bin	0.76666666666667	1005
bin	0.83333333333333	1230
bin	0.9	1831
bin	0.96666666666667	90322
bin	1.0333333333333	0
bin	1.1	0
bin	1.1666666666667	0
bin	1.2333333333333	0
bin	1.3	0
bin	1.3666666666667	0
bin	1.4333333333333	0
bin	1.5	0
statistic scenarioPRJP1.node[64].wlan.radio 	minSNIR:histogram
field count 350339
field mean 4067.190770168
field stddev 80653.099650329
field sum 1424895547.2299
field sqrsum 2.2847168549395e+15
field min 0.00010877918188085
field max 6927876.5619962
attr source  minSNIR
attr title  "Min SNIR, histogram"
bin	-INF	0
bin	-234584.95583584	0
bin	-203306.86247251	0
bin	-172028.76910919	0
bin	-140750.67574587	0
bin	-109472.58238255	0
bin	-78194.489019223	0
bin	-46916.3956559	0
bin	-15638.302292577	345520
bin	15639.791070746	1992
bin	46917.884434069	1033
bin	78195.977797392	490
bin	109474.07116072	158
bin	140752.16452404	137
bin	172030.25788736	139
bin	203308.35125068	35
bin	234586.44461401	46
bin	265864.53797733	21
bin	297142.63134065	22
bin	328420.72470398	30
bin	359698.8180673	12
bin	390976.91143062	7
bin	422255.00479394	21
bin	453533.09815727	12
bin	484811.19152059	11
bin	516089.28488391	19
bin	547367.37824724	55
bin	578645.47161056	18
bin	609923.56497388	20
bin	641201.65833721	20
bin	672479.75170053	26
bin	703757.84506385	495
scalar scenarioPRJP1.node[64].lo0.lo 	droppedPkBitError:count 	0
attr interpolationmode  none
attr source  dropPkBitError
attr title  "packets dropped/bit error, count"
scalar scenarioPRJP1.node[64].lo0.lo 	droppedPkBitError:sum(packetBytes) 	0
attr interpolationmode  none
attr source  dropPkBitError
attr title  "packets dropped/bit error, sum(packetBytes)"
scalar scenarioPRJP1.node[64].lo0.lo 	rcvdPkFromHL:count 	0
attr interpolationmode  none
attr source  packetReceivedFromUpper
attr title  "packets received from higher layer, count"
scalar scenarioPRJP1.node[64].lo0.lo 	rcvdPkFromHL:sum(packetBytes) 	0
attr interpolationmode  none
attr source  packetReceivedFromUpper
attr title  "packets received from higher layer, sum(packetBytes)"
scalar scenarioPRJP1.node[64].lo0.lo 	passedUpPk:count 	0
attr interpolationmode  none
attr source  packetSentToUpper
attr title  "packets passed to higher layer, count"
scalar scenarioPRJP1.node[64].lo0.lo 	passedUpPk:sum(packetBytes) 	0
attr interpolationmode  none
attr source  packetSentToUpper
attr title  "packets passed to higher layer, sum(packetBytes)"
scalar scenarioPRJP1.node[3].app 	"Total sent" 	4853
scalar scenarioPRJP1.node[3].app 	"Total received" 	1019
scalar scenarioPRJP1.node[3].app 	"Total deleted" 	130
scalar scenarioPRJP1.node[3].app 	dropPk:count 	130
attr interpolationmode  none
attr source  dropPk
attr title  "packets dropped, count"
scalar scenarioPRJP1.node[3].app 	dropPk:sum(packetBytes) 	66560
attr interpolationmode  none
attr source  dropPk
attr title  "packets dropped, sum(packetBytes)"
scalar scenarioPRJP1.node[3].app 	outOfOrderPk:count 	1
attr interpolationmode  none
attr source  outOfOrderPk
attr title  "packets received out of order, count"
scalar scenarioPRJP1.node[3].app 	outOfOrderPk:sum(packetBytes) 	512
attr interpolationmode  none
attr source  outOfOrderPk
attr title  "packets received out of order, sum(packetBytes)"
scalar scenarioPRJP1.node[3].app 	rcvdPk:count 	1019
attr interpolationmode  none
attr source  rcvdPk
attr title  "packets received, count"
scalar scenarioPRJP1.node[3].app 	rcvdPk:sum(packetBytes) 	521728
attr interpolationmode  none
attr source  rcvdPk
attr title  "packets received, sum(packetBytes)"
statistic scenarioPRJP1.node[3].app 	endToEndDelay:histogram
field count 1019
field mean 4.261810231229
field stddev 5.3207892282188
field sum 4342.7846256223
field sqrsum 47328.51632483
field min 0.000891031898
field max 19.906069455427
attr interpolationmode  none
attr source  messageAge(rcvdPk)
attr title  "delay, histogram"
attr unit  s
bin	-INF	0
bin	-8.6117570612815	0
bin	-7.4634026637024	0
bin	-6.3150482661232	0
bin	-5.1666938685441	0
bin	-4.018339470965	0
bin	-2.8699850733858	0
bin	-1.7216306758067	0
bin	-0.57327627822757	420
bin	0.57507811935157	100
bin	1.7234325169307	63
bin	2.8717869145098	57
bin	4.020141312089	35
bin	5.1684957096681	43
bin	6.3168501072472	46
bin	7.4652045048264	35
bin	8.6135589024055	50
bin	9.7619132999846	35
bin	10.910267697564	22
bin	12.058622095143	23
bin	13.206976492722	15
bin	14.355330890301	15
bin	15.50368528788	17
bin	16.652039685459	15
bin	17.800394083039	18
bin	18.948748480618	10
bin	20.097102878197	0
bin	21.245457275776	0
bin	22.393811673355	0
bin	23.542166070934	0
bin	24.690520468513	0
bin	25.838874866092	0
scalar scenarioPRJP1.node[3].app 	sentPk:count 	4853
attr interpolationmode  none
attr source  sentPk
attr title  "packets sent, count"
scalar scenarioPRJP1.node[3].app 	sentPk:sum(packetBytes) 	2484736
attr interpolationmode  none
attr source  sentPk
attr title  "packets sent, sum(packetBytes)"
scalar scenarioPRJP1.node[3].udp 	droppedPkBadChecksum:count 	0
attr interpolationmode  none
attr title  "packets dropped (checksum error), count"
scalar scenarioPRJP1.node[3].udp 	droppedPkWrongPort:count 	0
attr interpolationmode  none
attr title  "packets dropped (wrong port), count"
scalar scenarioPRJP1.node[3].udp 	passedUpPk:count 	1150
attr interpolationmode  none
attr title  "packets passed up, count"
scalar scenarioPRJP1.node[3].udp 	rcvdPk:count 	1150
attr interpolationmode  none
attr source  rcvdPk
attr title  "packets received, count"
scalar scenarioPRJP1.node[3].udp 	rcvdPk:sum(packetBytes) 	598000
attr interpolationmode  none
attr source  rcvdPk
attr title  "packets received, sum(packetBytes)"
scalar scenarioPRJP1.node[3].udp 	sentPk:count 	4853
attr interpolationmode  none
attr source  sentPk
attr title  "packets sent, count"
scalar scenarioPRJP1.node[3].udp 	sentPk:sum(packetBytes) 	2523560
attr interpolationmode  none
attr source  sentPk
attr title  "packets sent, sum(packetBytes)"
scalar scenarioPRJP1.node[3].networkLayer.arp 	failedARPResolution:count 	27
attr title  "ARP failed resolutions, count"
scalar scenarioPRJP1.node[3].networkLayer.arp 	completedARPResolution:count 	1522
attr title  "ARP completed resolutions, count"
scalar scenarioPRJP1.node[3].networkLayer.arp 	initiatedARPResolution:count 	166
attr title  "ARP initiated resolutions, count"
scalar scenarioPRJP1.node[3].networkLayer.arp 	sentReply:count 	99
attr title  "ARP replies sent, count"
scalar scenarioPRJP1.node[3].networkLayer.arp 	sentReq:count 	295
attr title  "ARP request sent, count"
scalar scenarioPRJP1.node[3].mobility 	startTime 	0.1
scalar scenarioPRJP1.node[3].mobility 	totalTime 	1743.2
scalar scenarioPRJP1.node[3].mobility 	stopTime 	1743.4
scalar scenarioPRJP1.node[3].mobility 	minSpeed 	2.4754252676889e-13
scalar scenarioPRJP1.node[3].mobility 	maxSpeed 	20.080060254775
scalar scenarioPRJP1.node[3].mobility 	totalDistance 	18995.096096003
scalar scenarioPRJP1.node[3].mobility 	totalCO2Emission 	5257.3454026541
scalar scenarioPRJP1.node[3].wlan.mgmt 	dataQueueLen:max 	55
attr interpolationmode  sample-hold
attr title  "data queue length, max"
scalar scenarioPRJP1.node[3].wlan.mgmt 	dataQueueLen:timeavg 	7.489883283428e-06
attr interpolationmode  sample-hold
attr title  "data queue length, timeavg"
scalar scenarioPRJP1.node[3].wlan.mgmt 	dropPkByQueue:count 	0
attr interpolationmode  none
attr source  dropPkByQueue
attr title  "packets dropped by queue, count"
scalar scenarioPRJP1.node[3].wlan.mgmt 	dropPkByQueue:sum(packetBytes) 	0
attr interpolationmode  none
attr source  dropPkByQueue
attr title  "packets dropped by queue, sum(packetBytes)"
scalar scenarioPRJP1.node[3].wlan.mac 	"number of received packets" 	7410
scalar scenarioPRJP1.node[3].wlan.mac 	"number of collisions" 	120385
scalar scenarioPRJP1.node[3].wlan.mac 	"number of internal collisions" 	0
scalar scenarioPRJP1.node[3].wlan.mac 	"number of retry for AC 0" 	20589
scalar scenarioPRJP1.node[3].wlan.mac 	"number of retry for AC 1" 	0
scalar scenarioPRJP1.node[3].wlan.mac 	"number of retry for AC 2" 	0
scalar scenarioPRJP1.node[3].wlan.mac 	"number of retry for AC 3" 	0
scalar scenarioPRJP1.node[3].wlan.mac 	"sent and received bits" 	66829168
scalar scenarioPRJP1.node[3].wlan.mac 	"sent packet within AC 0" 	6995
scalar scenarioPRJP1.node[3].wlan.mac 	"sent packet within AC 1" 	3
scalar scenarioPRJP1.node[3].wlan.mac 	"sent packet within AC 2" 	0
scalar scenarioPRJP1.node[3].wlan.mac 	"sent packet within AC 3" 	0
scalar scenarioPRJP1.node[3].wlan.mac 	"sent in TXOP " 	0
scalar scenarioPRJP1.node[3].wlan.mac 	"sentWithoutRetry AC 0" 	4706
scalar scenarioPRJP1.node[3].wlan.mac 	"sentWithoutRetry AC 1" 	3
scalar scenarioPRJP1.node[3].wlan.mac 	"sentWithoutRetry AC 2" 	0
scalar scenarioPRJP1.node[3].wlan.mac 	"sentWithoutRetry AC 3" 	0
scalar scenarioPRJP1.node[3].wlan.mac 	"numGivenUp AC 0" 	2340
scalar scenarioPRJP1.node[3].wlan.mac 	"numGivenUp AC 1" 	0
scalar scenarioPRJP1.node[3].wlan.mac 	"numGivenUp AC 2" 	0
scalar scenarioPRJP1.node[3].wlan.mac 	"numGivenUp AC 3" 	0
scalar scenarioPRJP1.node[3].wlan.mac 	"numDropped AC 0" 	5
scalar scenarioPRJP1.node[3].wlan.mac 	"numDropped AC 1" 	0
scalar scenarioPRJP1.node[3].wlan.mac 	"numDropped AC 2" 	0
scalar scenarioPRJP1.node[3].wlan.mac 	"numDropped AC 3" 	0
scalar scenarioPRJP1.node[3].wlan.mac 	rcvdPkFromLL:count 	352410
attr interpolationmode  none
attr source  packetReceivedFromLower
attr title  "packets received from lower layer, count"
scalar scenarioPRJP1.node[3].wlan.mac 	rcvdPkFromLL:sum(packetBytes) 	119021690
attr interpolationmode  none
attr source  packetReceivedFromLower
attr title  "packets received from lower layer, sum(packetBytes)"
scalar scenarioPRJP1.node[3].wlan.mac 	sentDownPk:count 	64394
attr interpolationmode  none
attr source  packetSentToLower
attr title  "packets sent to lower layer, count"
scalar scenarioPRJP1.node[3].wlan.mac 	sentDownPk:sum(packetBytes) 	21468603
attr interpolationmode  none
attr source  packetSentToLower
attr title  "packets sent to lower layer, sum(packetBytes)"
scalar scenarioPRJP1.node[3].wlan.mac 	rcvdPkFromHL:count 	36400
attr interpolationmode  none
attr source  packetReceivedFromUpper
attr title  "packets received from higher layer, count"
scalar scenarioPRJP1.node[3].wlan.mac 	rcvdPkFromHL:sum(packetBytes) 	9688216
attr interpolationmode  none
attr source  packetReceivedFromUpper
attr title  "packets received from higher layer, sum(packetBytes)"
scalar scenarioPRJP1.node[3].wlan.mac 	passedUpPk:count 	108670
attr interpolationmode  none
attr source  packetSentToUpper
attr title  "packets passed to higher layer, count"
scalar scenarioPRJP1.node[3].wlan.mac 	passedUpPk:sum(packetBytes) 	20940276
attr interpolationmode  none
attr source  packetSentToUpper
attr title  "packets passed to higher layer, sum(packetBytes)"
statistic scenarioPRJP1.node[3].wlan.radio 	radioChannel:histogram
field count 1
field mean 3
field stddev -nan
field sum 3
field sqrsum 9
field min 3
field max 3
attr interpolationmode  sample-hold
attr source  radioChannelChanged
attr title  "Radio channel, histogram"
bin	-INF	0
bin	2	0
bin	3	1
bin	4	0
scalar scenarioPRJP1.node[3].wlan.radio 	transmissionState:count 	257576
attr interpolationmode  sample-hold
attr source  transmissionStateChanged
attr title  "Radio transmission state, count"
scalar scenarioPRJP1.node[3].wlan.radio 	receptionState:count 	1718315
attr interpolationmode  sample-hold
attr source  receptionStateChanged
attr title  "Radio reception state, count"
scalar scenarioPRJP1.node[3].wlan.radio 	radioMode:count 	128790
attr interpolationmode  sample-hold
attr source  radioModeChanged
attr title  "Radio mode, count"
statistic scenarioPRJP1.node[3].wlan.radio 	symbolErrorRate:histogram
field count 0
field mean -nan
field stddev -nan
field sum 0
field sqrsum 0
field min -nan
field max -nan
attr source  symbolErrorRate
attr title  "Symbol error rate, histogram"
bin	-INF	0
bin	-0.5	0
bin	-0.46666666666667	0
bin	-0.43333333333333	0
bin	-0.4	0
bin	-0.36666666666667	0
bin	-0.33333333333333	0
bin	-0.3	0
bin	-0.26666666666667	0
bin	-0.23333333333333	0
bin	-0.2	0
bin	-0.16666666666667	0
bin	-0.13333333333333	0
bin	-0.1	0
bin	-0.066666666666667	0
bin	-0.033333333333333	0
bin	0	0
bin	0.033333333333333	0
bin	0.066666666666667	0
bin	0.1	0
bin	0.13333333333333	0
bin	0.16666666666667	0
bin	0.2	0
bin	0.23333333333333	0
bin	0.26666666666667	0
bin	0.3	0
bin	0.33333333333333	0
bin	0.36666666666667	0
bin	0.4	0
bin	0.43333333333333	0
bin	0.46666666666667	0
bin	0.5	0
statistic scenarioPRJP1.node[3].wlan.radio 	bitErrorRate:histogram
field count 0
field mean -nan
field stddev -nan
field sum 0
field sqrsum 0
field min -nan
field max -nan
attr source  bitErrorRate
attr title  "Bit error rate, histogram"
bin	-INF	0
bin	-0.5	0
bin	-0.46666666666667	0
bin	-0.43333333333333	0
bin	-0.4	0
bin	-0.36666666666667	0
bin	-0.33333333333333	0
bin	-0.3	0
bin	-0.26666666666667	0
bin	-0.23333333333333	0
bin	-0.2	0
bin	-0.16666666666667	0
bin	-0.13333333333333	0
bin	-0.1	0
bin	-0.066666666666667	0
bin	-0.033333333333333	0
bin	0	0
bin	0.033333333333333	0
bin	0.066666666666667	0
bin	0.1	0
bin	0.13333333333333	0
bin	0.16666666666667	0
bin	0.2	0
bin	0.23333333333333	0
bin	0.26666666666667	0
bin	0.3	0
bin	0.33333333333333	0
bin	0.36666666666667	0
bin	0.4	0
bin	0.43333333333333	0
bin	0.46666666666667	0
bin	0.5	0
statistic scenarioPRJP1.node[3].wlan.radio 	packetErrorRate:histogram
field count 352410
field mean 0.31088142133869
field stddev 0.45100845871839
field sum 109557.72169397
field sqrsum 105742.49207056
field min 0
field max 1
attr source  packetErrorRate
attr title  "Packet error rate, histogram"
bin	-INF	0
bin	-0.5	0
bin	-0.43333333333333	0
bin	-0.36666666666667	0
bin	-0.3	0
bin	-0.23333333333333	0
bin	-0.16666666666667	0
bin	-0.1	0
bin	-0.033333333333333	227544
bin	0.033333333333333	5974
bin	0.1	3017
bin	0.16666666666667	2055
bin	0.23333333333333	1637
bin	0.3	1417
bin	0.36666666666667	1260
bin	0.43333333333333	1115
bin	0.5	1019
bin	0.56666666666667	1036
bin	0.63333333333333	1056
bin	0.7	1005
bin	0.76666666666667	1150
bin	0.83333333333333	1343
bin	0.9	2156
bin	0.96666666666667	99626
bin	1.0333333333333	0
bin	1.1	0
bin	1.1666666666667	0
bin	1.2333333333333	0
bin	1.3	0
bin	1.3666666666667	0
bin	1.4333333333333	0
bin	1.5	0
statistic scenarioPRJP1.node[3].wlan.radio 	minSNIR:histogram
field count 352410
field mean 5899.0855194548
field stddev 110854.07622296
field sum 2078896727.9111
field sqrsum 4.3428860654729e+15
field min 0.00011898675517608
field max 9348711.7601866
attr source  minSNIR
attr title  "Min SNIR, histogram"
bin	-INF	0
bin	-56458.561967543	0
bin	-48930.60143224	0
bin	-41402.640896937	0
bin	-33874.680361633	0
bin	-26346.71982633	0
bin	-18818.759291027	0
bin	-11290.798755724	0
bin	-3762.8382204213	336374
bin	3765.1223148818	8164
bin	11293.082850185	3198
bin	18821.043385488	946
bin	26349.003920791	488
bin	33876.964456094	342
bin	41404.924991397	216
bin	48932.8855267	305
bin	56460.846062003	136
bin	63988.806597306	219
bin	71516.767132609	121
bin	79044.727667912	44
bin	86572.688203215	160
bin	94100.648738519	110
bin	101628.60927382	97
bin	109156.56980912	58
bin	116684.53034443	31
bin	124212.49087973	87
bin	131740.45141503	22
bin	139268.41195034	26
bin	146796.37248564	49
bin	154324.33302094	16
bin	161852.29355625	27
bin	169380.25409155	1174
scalar scenarioPRJP1.node[3].lo0.lo 	droppedPkBitError:count 	0
attr interpolationmode  none
attr source  dropPkBitError
attr title  "packets dropped/bit error, count"
scalar scenarioPRJP1.node[3].lo0.lo 	droppedPkBitError:sum(packetBytes) 	0
attr interpolationmode  none
attr source  dropPkBitError
attr title  "packets dropped/bit error, sum(packetBytes)"
scalar scenarioPRJP1.node[3].lo0.lo 	rcvdPkFromHL:count 	0
attr interpolationmode  none
attr source  packetReceivedFromUpper
attr title  "packets received from higher layer, count"
scalar scenarioPRJP1.node[3].lo0.lo 	rcvdPkFromHL:sum(packetBytes) 	0
attr interpolationmode  none
attr source  packetReceivedFromUpper
attr title  "packets received from higher layer, sum(packetBytes)"
scalar scenarioPRJP1.node[3].lo0.lo 	passedUpPk:count 	0
attr interpolationmode  none
attr source  packetSentToUpper
attr title  "packets passed to higher layer, count"
scalar scenarioPRJP1.node[3].lo0.lo 	passedUpPk:sum(packetBytes) 	0
attr interpolationmode  none
attr source  packetSentToUpper
attr title  "packets passed to higher layer, sum(packetBytes)"
scalar scenarioPRJP1.node[19].app 	"Total sent" 	5005
scalar scenarioPRJP1.node[19].app 	"Total received" 	1086
scalar scenarioPRJP1.node[19].app 	"Total deleted" 	161
scalar scenarioPRJP1.node[19].app 	dropPk:count 	161
attr interpolationmode  none
attr source  dropPk
attr title  "packets dropped, count"
scalar scenarioPRJP1.node[19].app 	dropPk:sum(packetBytes) 	82432
attr interpolationmode  none
attr source  dropPk
attr title  "packets dropped, sum(packetBytes)"
scalar scenarioPRJP1.node[19].app 	outOfOrderPk:count 	2
attr interpolationmode  none
attr source  outOfOrderPk
attr title  "packets received out of order, count"
scalar scenarioPRJP1.node[19].app 	outOfOrderPk:sum(packetBytes) 	1024
attr interpolationmode  none
attr source  outOfOrderPk
attr title  "packets received out of order, sum(packetBytes)"
scalar scenarioPRJP1.node[19].app 	rcvdPk:count 	1086
attr interpolationmode  none
attr source  rcvdPk
attr title  "packets received, count"
scalar scenarioPRJP1.node[19].app 	rcvdPk:sum(packetBytes) 	556032
attr interpolationmode  none
attr source  rcvdPk
attr title  "packets received, sum(packetBytes)"
statistic scenarioPRJP1.node[19].app 	endToEndDelay:histogram
field count 1086
field mean 4.3611328446496
field stddev 5.6008020385166
field sum 4736.1902692895
field sqrsum 54690.502011906
field min 0.000900068821
field max 19.987006842384
attr interpolationmode  none
attr source  messageAge(rcvdPk)
attr title  "delay, histogram"
attr unit  s
bin	-INF	0
bin	-9.9773555144665	0
bin	-8.6469190058299	0
bin	-7.3164824971933	0
bin	-5.9860459885567	0
bin	-4.6556094799201	0
bin	-3.3251729712835	0
bin	-1.9947364626469	0
bin	-0.6642999540103	481
bin	0.6661365546263	96
bin	1.9965730632629	72
bin	3.3270095718995	71
bin	4.6574460805361	51
bin	5.9878825891727	38
bin	7.3183190978093	39
bin	8.6487556064459	32
bin	9.9791921150825	31
bin	11.309628623719	37
bin	12.640065132356	32
bin	13.970501640992	29
bin	15.300938149629	26
bin	16.631374658265	20
bin	17.961811166902	23
bin	19.292247675539	8
bin	20.622684184175	0
bin	21.953120692812	0
bin	23.283557201448	0
bin	24.613993710085	0
bin	25.944430218722	0
bin	27.274866727358	0
bin	28.605303235995	0
bin	29.935739744632	0
scalar scenarioPRJP1.node[19].app 	sentPk:count 	5005
attr interpolationmode  none
attr source  sentPk
attr title  "packets sent, count"
scalar scenarioPRJP1.node[19].app 	sentPk:sum(packetBytes) 	2562560
attr interpolationmode  none
attr source  sentPk
attr title  "packets sent, sum(packetBytes)"
scalar scenarioPRJP1.node[19].udp 	droppedPkBadChecksum:count 	0
attr interpolationmode  none
attr title  "packets dropped (checksum error), count"
scalar scenarioPRJP1.node[19].udp 	droppedPkWrongPort:count 	0
attr interpolationmode  none
attr title  "packets dropped (wrong port), count"
scalar scenarioPRJP1.node[19].udp 	passedUpPk:count 	1249
attr interpolationmode  none
attr title  "packets passed up, count"
scalar scenarioPRJP1.node[19].udp 	rcvdPk:count 	1249
attr interpolationmode  none
attr source  rcvdPk
attr title  "packets received, count"
scalar scenarioPRJP1.node[19].udp 	rcvdPk:sum(packetBytes) 	649480
attr interpolationmode  none
attr source  rcvdPk
attr title  "packets received, sum(packetBytes)"
scalar scenarioPRJP1.node[19].udp 	sentPk:count 	5005
attr interpolationmode  none
attr source  sentPk
attr title  "packets sent, count"
scalar scenarioPRJP1.node[19].udp 	sentPk:sum(packetBytes) 	2602600
attr interpolationmode  none
attr source  sentPk
attr title  "packets sent, sum(packetBytes)"
scalar scenarioPRJP1.node[19].networkLayer.arp 	failedARPResolution:count 	22
attr title  "ARP failed resolutions, count"
scalar scenarioPRJP1.node[19].networkLayer.arp 	completedARPResolution:count 	1336
attr title  "ARP completed resolutions, count"
scalar scenarioPRJP1.node[19].networkLayer.arp 	initiatedARPResolution:count 	177
attr title  "ARP initiated resolutions, count"
scalar scenarioPRJP1.node[19].networkLayer.arp 	sentReply:count 	103
attr title  "ARP replies sent, count"
scalar scenarioPRJP1.node[19].networkLayer.arp 	sentReq:count 	303
attr title  "ARP request sent, count"
scalar scenarioPRJP1.node[19].mobility 	startTime 	0.1
scalar scenarioPRJP1.node[19].mobility 	totalTime 	1807.5
scalar scenarioPRJP1.node[19].mobility 	stopTime 	1807.7
scalar scenarioPRJP1.node[19].mobility 	minSpeed 	2.4761552436463e-13
scalar scenarioPRJP1.node[19].mobility 	maxSpeed 	18.781330805828
scalar scenarioPRJP1.node[19].mobility 	totalDistance 	19995.581620936
scalar scenarioPRJP1.node[19].mobility 	totalCO2Emission 	5241.5106987696
scalar scenarioPRJP1.node[19].wlan.mgmt 	dataQueueLen:max 	78
attr interpolationmode  sample-hold
attr title  "data queue length, max"
scalar scenarioPRJP1.node[19].wlan.mgmt 	dataQueueLen:timeavg 	0.0046913606664284
attr interpolationmode  sample-hold
attr title  "data queue length, timeavg"
scalar scenarioPRJP1.node[19].wlan.mgmt 	dropPkByQueue:count 	0
attr interpolationmode  none
attr source  dropPkByQueue
attr title  "packets dropped by queue, count"
scalar scenarioPRJP1.node[19].wlan.mgmt 	dropPkByQueue:sum(packetBytes) 	0
attr interpolationmode  none
attr source  dropPkByQueue
attr title  "packets dropped by queue, sum(packetBytes)"
scalar scenarioPRJP1.node[19].wlan.mac 	"number of received packets" 	7735
scalar scenarioPRJP1.node[19].wlan.mac 	"number of collisions" 	119700
scalar scenarioPRJP1.node[19].wlan.mac 	"number of internal collisions" 	0
scalar scenarioPRJP1.node[19].wlan.mac 	"number of retry for AC 0" 	19883
scalar scenarioPRJP1.node[19].wlan.mac 	"number of retry for AC 1" 	6
scalar scenarioPRJP1.node[19].wlan.mac 	"number of retry for AC 2" 	0
scalar scenarioPRJP1.node[19].wlan.mac 	"number of retry for AC 3" 	0
scalar scenarioPRJP1.node[19].wlan.mac 	"sent and received bits" 	68823192
scalar scenarioPRJP1.node[19].wlan.mac 	"sent packet within AC 0" 	7241
scalar scenarioPRJP1.node[19].wlan.mac 	"sent packet within AC 1" 	6
scalar scenarioPRJP1.node[19].wlan.mac 	"sent packet within AC 2" 	0
scalar scenarioPRJP1.node[19].wlan.mac 	"sent packet within AC 3" 	0
scalar scenarioPRJP1.node[19].wlan.mac 	"sent in TXOP " 	0
scalar scenarioPRJP1.node[19].wlan.mac 	"sentWithoutRetry AC 0" 	4756
scalar scenarioPRJP1.node[19].wlan.mac 	"sentWithoutRetry AC 1" 	4
scalar scenarioPRJP1.node[19].wlan.mac 	"sentWithoutRetry AC 2" 	0
scalar scenarioPRJP1.node[19].wlan.mac 	"sentWithoutRetry AC 3" 	0
scalar scenarioPRJP1.node[19].wlan.mac 	"numGivenUp AC 0" 	2138
scalar scenarioPRJP1.node[19].wlan.mac 	"numGivenUp AC 1" 	0
scalar scenarioPRJP1.node[19].wlan.mac 	"numGivenUp AC 2" 	0
scalar scenarioPRJP1.node[19].wlan.mac 	"numGivenUp AC 3" 	0
scalar scenarioPRJP1.node[19].wlan.mac 	"numDropped AC 0" 	39
scalar scenarioPRJP1.node[19].wlan.mac 	"numDropped AC 1" 	0
scalar scenarioPRJP1.node[19].wlan.mac 	"numDropped AC 2" 	0
scalar scenarioPRJP1.node[19].wlan.mac 	"numDropped AC 3" 	0
scalar scenarioPRJP1.node[19].wlan.mac 	rcvdPkFromLL:count 	348329
attr interpolationmode  none
attr source  packetReceivedFromLower
attr title  "packets received from lower layer, count"
scalar scenarioPRJP1.node[19].wlan.mac 	rcvdPkFromLL:sum(packetBytes) 	114840681
attr interpolationmode  none
attr source  packetReceivedFromLower
attr title  "packets received from lower layer, sum(packetBytes)"
scalar scenarioPRJP1.node[19].wlan.mac 	sentDownPk:count 	65159
attr interpolationmode  none
attr source  packetSentToLower
attr title  "packets sent to lower layer, count"
scalar scenarioPRJP1.node[19].wlan.mac 	sentDownPk:sum(packetBytes) 	21169574
attr interpolationmode  none
attr source  packetSentToLower
attr title  "packets sent to lower layer, sum(packetBytes)"
scalar scenarioPRJP1.node[19].wlan.mac 	rcvdPkFromHL:count 	37574
attr interpolationmode  none
attr source  packetReceivedFromUpper
attr title  "packets received from higher layer, count"
scalar scenarioPRJP1.node[19].wlan.mac 	rcvdPkFromHL:sum(packetBytes) 	9836454
attr interpolationmode  none
attr source  packetReceivedFromUpper
attr title  "packets received from higher layer, sum(packetBytes)"
scalar scenarioPRJP1.node[19].wlan.mac 	passedUpPk:count 	111670
attr interpolationmode  none
attr source  packetSentToUpper
attr title  "packets passed to higher layer, count"
scalar scenarioPRJP1.node[19].wlan.mac 	passedUpPk:sum(packetBytes) 	21066714
attr interpolationmode  none
attr source  packetSentToUpper
attr title  "packets passed to higher layer, sum(packetBytes)"
statistic scenarioPRJP1.node[19].wlan.radio 	radioChannel:histogram
field count 1
field mean 3
field stddev -nan
field sum 3
field sqrsum 9
field min 3
field max 3
attr interpolationmode  sample-hold
attr source  radioChannelChanged
attr title  "Radio channel, histogram"
bin	-INF	0
bin	2	0
bin	3	1
bin	4	0
scalar scenarioPRJP1.node[19].wlan.radio 	transmissionState:count 	260636
attr interpolationmode  sample-hold
attr source  transmissionStateChanged
attr title  "Radio transmission state, count"
scalar scenarioPRJP1.node[19].wlan.radio 	receptionState:count 	1733138
attr interpolationmode  sample-hold
attr source  receptionStateChanged
attr title  "Radio reception state, count"
scalar scenarioPRJP1.node[19].wlan.radio 	radioMode:count 	130320
attr interpolationmode  sample-hold
attr source  radioModeChanged
attr title  "Radio mode, count"
statistic scenarioPRJP1.node[19].wlan.radio 	symbolErrorRate:histogram
field count 0
field mean -nan
field stddev -nan
field sum 0
field sqrsum 0
field min -nan
field max -nan
attr source  symbolErrorRate
attr title  "Symbol error rate, histogram"
bin	-INF	0
bin	-0.5	0
bin	-0.46666666666667	0
bin	-0.43333333333333	0
bin	-0.4	0
bin	-0.36666666666667	0
bin	-0.33333333333333	0
bin	-0.3	0
bin	-0.26666666666667	0
bin	-0.23333333333333	0
bin	-0.2	0
bin	-0.16666666666667	0
bin	-0.13333333333333	0
bin	-0.1	0
bin	-0.066666666666667	0
bin	-0.033333333333333	0
bin	0	0
bin	0.033333333333333	0
bin	0.066666666666667	0
bin	0.1	0
bin	0.13333333333333	0
bin	0.16666666666667	0
bin	0.2	0
bin	0.23333333333333	0
bin	0.26666666666667	0
bin	0.3	0
bin	0.33333333333333	0
bin	0.36666666666667	0
bin	0.4	0
bin	0.43333333333333	0
bin	0.46666666666667	0
bin	0.5	0
statistic scenarioPRJP1.node[19].wlan.radio 	bitErrorRate:histogram
field count 0
field mean -nan
field stddev -nan
field sum 0
field sqrsum 0
field min -nan
field max -nan
attr source  bitErrorRate
attr title  "Bit error rate, histogram"
bin	-INF	0
bin	-0.5	0
bin	-0.46666666666667	0
bin	-0.43333333333333	0
bin	-0.4	0
bin	-0.36666666666667	0
bin	-0.33333333333333	0
bin	-0.3	0
bin	-0.26666666666667	0
bin	-0.23333333333333	0
bin	-0.2	0
bin	-0.16666666666667	0
bin	-0.13333333333333	0
bin	-0.1	0
bin	-0.066666666666667	0
bin	-0.033333333333333	0
bin	0	0
bin	0.033333333333333	0
bin	0.066666666666667	0
bin	0.1	0
bin	0.13333333333333	0
bin	0.16666666666667	0
bin	0.2	0
bin	0.23333333333333	0
bin	0.26666666666667	0
bin	0.3	0
bin	0.33333333333333	0
bin	0.36666666666667	0
bin	0.4	0
bin	0.43333333333333	0
bin	0.46666666666667	0
bin	0.5	0
statistic scenarioPRJP1.node[19].wlan.radio 	packetErrorRate:histogram
field count 348329
field mean 0.31128326483435
field stddev 0.45115032597949
field sum 108428.98835648
field sqrsum 104649.63209627
field min 0
field max 1
attr source  packetErrorRate
attr title  "Packet error rate, histogram"
bin	-INF	0
bin	-0.5	0
bin	-0.43333333333333	0
bin	-0.36666666666667	0
bin	-0.3	0
bin	-0.23333333333333	0
bin	-0.16666666666667	0
bin	-0.1	0
bin	-0.033333333333333	224512
bin	0.033333333333333	6188
bin	0.1	3014
bin	0.16666666666667	2101
bin	0.23333333333333	1614
bin	0.3	1408
bin	0.36666666666667	1156
bin	0.43333333333333	1089
bin	0.5	1031
bin	0.56666666666667	951
bin	0.63333333333333	1006
bin	0.7	1000
bin	0.76666666666667	1165
bin	0.83333333333333	1371
bin	0.9	2104
bin	0.96666666666667	98619
bin	1.0333333333333	0
bin	1.1	0
bin	1.1666666666667	0
bin	1.2333333333333	0
bin	1.3	0
bin	1.3666666666667	0
bin	1.4333333333333	0
bin	1.5	0
statistic scenarioPRJP1.node[19].wlan.radio 	minSNIR:histogram
field count 348329
field mean 3374.9221219142
field stddev 73092.109113879
field sum 1175583247.8042
field sqrsum 1.8648946599341e+15
field min 0.00011510752702129
field max 9565443.6760261
attr source  minSNIR
attr title  "Min SNIR, histogram"
bin	-INF	0
bin	-62931.509903487	0
bin	-54540.460106296	0
bin	-46149.410309105	0
bin	-37758.360511915	0
bin	-29367.310714724	0
bin	-20976.260917534	0
bin	-12585.211120343	0
bin	-4194.1613231529	336227
bin	4196.8884740376	6326
bin	12587.938271228	1956
bin	20978.988068419	826
bin	29370.037865609	452
bin	37761.0876628	246
bin	46152.13745999	259
bin	54543.187257181	137
bin	62934.237054371	112
bin	71325.286851562	290
bin	79716.336648752	66
bin	88107.386445943	238
bin	96498.436243133	56
bin	104889.48604032	26
bin	113280.53583751	41
bin	121671.5856347	16
bin	130062.6354319	38
bin	138453.68522909	52
bin	146844.73502628	38
bin	155235.78482347	31
bin	163626.83462066	30
bin	172017.88441785	102
bin	180408.93421504	18
bin	188799.98401223	746
scalar scenarioPRJP1.node[19].lo0.lo 	droppedPkBitError:count 	0
attr interpolationmode  none
attr source  dropPkBitError
attr title  "packets dropped/bit error, count"
scalar scenarioPRJP1.node[19].lo0.lo 	droppedPkBitError:sum(packetBytes) 	0
attr interpolationmode  none
attr source  dropPkBitError
attr title  "packets dropped/bit error, sum(packetBytes)"
scalar scenarioPRJP1.node[19].lo0.lo 	rcvdPkFromHL:count 	0
attr interpolationmode  none
attr source  packetReceivedFromUpper
attr title  "packets received from higher layer, count"
scalar scenarioPRJP1.node[19].lo0.lo 	rcvdPkFromHL:sum(packetBytes) 	0
attr interpolationmode  none
attr source  packetReceivedFromUpper
attr title  "packets received from higher layer, sum(packetBytes)"
scalar scenarioPRJP1.node[19].lo0.lo 	passedUpPk:count 	0
attr interpolationmode  none
attr source  packetSentToUpper
attr title  "packets passed to higher layer, count"
scalar scenarioPRJP1.node[19].lo0.lo 	passedUpPk:sum(packetBytes) 	0
attr interpolationmode  none
attr source  packetSentToUpper
attr title  "packets passed to higher layer, sum(packetBytes)"
scalar scenarioPRJP1.node[47].app 	"Total sent" 	5010
scalar scenarioPRJP1.node[47].app 	"Total received" 	1077
scalar scenarioPRJP1.node[47].app 	"Total deleted" 	162
scalar scenarioPRJP1.node[47].app 	dropPk:count 	162
attr interpolationmode  none
attr source  dropPk
attr title  "packets dropped, count"
scalar scenarioPRJP1.node[47].app 	dropPk:sum(packetBytes) 	82944
attr interpolationmode  none
attr source  dropPk
attr title  "packets dropped, sum(packetBytes)"
scalar scenarioPRJP1.node[47].app 	outOfOrderPk:count 	0
attr interpolationmode  none
attr source  outOfOrderPk
attr title  "packets received out of order, count"
scalar scenarioPRJP1.node[47].app 	outOfOrderPk:sum(packetBytes) 	0
attr interpolationmode  none
attr source  outOfOrderPk
attr title  "packets received out of order, sum(packetBytes)"
scalar scenarioPRJP1.node[47].app 	rcvdPk:count 	1077
attr interpolationmode  none
attr source  rcvdPk
attr title  "packets received, count"
scalar scenarioPRJP1.node[47].app 	rcvdPk:sum(packetBytes) 	551424
attr interpolationmode  none
attr source  rcvdPk
attr title  "packets received, sum(packetBytes)"
statistic scenarioPRJP1.node[47].app 	endToEndDelay:histogram
field count 1077
field mean 4.5678318907841
field stddev 5.62697660852
field sum 4919.5549463745
field sqrsum 56540.943522561
field min 0.000891011258
field max 19.937680320655
attr interpolationmode  none
attr source  messageAge(rcvdPk)
attr title  "delay, histogram"
attr unit  s
bin	-INF	0
bin	-9.6614838659755	0
bin	-8.3731672086077	0
bin	-7.0848505512399	0
bin	-5.7965338938721	0
bin	-4.5082172365043	0
bin	-3.2199005791365	0
bin	-1.9315839217687	0
bin	-0.6432672644009	459
bin	0.6450493929669	90
bin	1.9333660503347	69
bin	3.2216827077025	55
bin	4.5099993650703	51
bin	5.7983160224381	48
bin	7.0866326798059	48
bin	8.3749493371737	39
bin	9.6632659945415	33
bin	10.951582651909	35
bin	12.239899309277	34
bin	13.528215966645	31
bin	14.816532624013	23
bin	16.104849281381	21
bin	17.393165938748	22
bin	18.681482596116	19
bin	19.969799253484	0
bin	21.258115910852	0
bin	22.54643256822	0
bin	23.834749225587	0
bin	25.123065882955	0
bin	26.411382540323	0
bin	27.699699197691	0
bin	28.988015855058	0
scalar scenarioPRJP1.node[47].app 	sentPk:count 	5010
attr interpolationmode  none
attr source  sentPk
attr title  "packets sent, count"
scalar scenarioPRJP1.node[47].app 	sentPk:sum(packetBytes) 	2565120
attr interpolationmode  none
attr source  sentPk
attr title  "packets sent, sum(packetBytes)"
scalar scenarioPRJP1.node[47].udp 	droppedPkBadChecksum:count 	0
attr interpolationmode  none
attr title  "packets dropped (checksum error), count"
scalar scenarioPRJP1.node[47].udp 	droppedPkWrongPort:count 	6
attr interpolationmode  none
attr title  "packets dropped (wrong port), count"
scalar scenarioPRJP1.node[47].udp 	passedUpPk:count 	1239
attr interpolationmode  none
attr title  "packets passed up, count"
scalar scenarioPRJP1.node[47].udp 	rcvdPk:count 	1245
attr interpolationmode  none
attr source  rcvdPk
attr title  "packets received, count"
scalar scenarioPRJP1.node[47].udp 	rcvdPk:sum(packetBytes) 	647400
attr interpolationmode  none
attr source  rcvdPk
attr title  "packets received, sum(packetBytes)"
scalar scenarioPRJP1.node[47].udp 	sentPk:count 	5010
attr interpolationmode  none
attr source  sentPk
attr title  "packets sent, count"
scalar scenarioPRJP1.node[47].udp 	sentPk:sum(packetBytes) 	2605200
attr interpolationmode  none
attr source  sentPk
attr title  "packets sent, sum(packetBytes)"
scalar scenarioPRJP1.node[47].networkLayer.arp 	failedARPResolution:count 	22
attr title  "ARP failed resolutions, count"
scalar scenarioPRJP1.node[47].networkLayer.arp 	completedARPResolution:count 	1538
attr title  "ARP completed resolutions, count"
scalar scenarioPRJP1.node[47].networkLayer.arp 	initiatedARPResolution:count 	157
attr title  "ARP initiated resolutions, count"
scalar scenarioPRJP1.node[47].networkLayer.arp 	sentReply:count 	101
attr title  "ARP replies sent, count"
scalar scenarioPRJP1.node[47].networkLayer.arp 	sentReq:count 	290
attr title  "ARP request sent, count"
scalar scenarioPRJP1.node[47].mobility 	startTime 	4.9
scalar scenarioPRJP1.node[47].mobility 	totalTime 	1824.6
scalar scenarioPRJP1.node[47].mobility 	stopTime 	1829.6
scalar scenarioPRJP1.node[47].mobility 	minSpeed 	2.4755244921552e-13
scalar scenarioPRJP1.node[47].mobility 	maxSpeed 	19.867908445291
scalar scenarioPRJP1.node[47].mobility 	totalDistance 	20079.563847349
scalar scenarioPRJP1.node[47].mobility 	totalCO2Emission 	5359.1218108542
scalar scenarioPRJP1.node[47].wlan.mgmt 	dataQueueLen:max 	86
attr interpolationmode  sample-hold
attr title  "data queue length, max"
scalar scenarioPRJP1.node[47].wlan.mgmt 	dataQueueLen:timeavg 	0.0040670590781312
attr interpolationmode  sample-hold
attr title  "data queue length, timeavg"
scalar scenarioPRJP1.node[47].wlan.mgmt 	dropPkByQueue:count 	0
attr interpolationmode  none
attr source  dropPkByQueue
attr title  "packets dropped by queue, count"
scalar scenarioPRJP1.node[47].wlan.mgmt 	dropPkByQueue:sum(packetBytes) 	0
attr interpolationmode  none
attr source  dropPkByQueue
attr title  "packets dropped by queue, sum(packetBytes)"
scalar scenarioPRJP1.node[47].wlan.mac 	"number of received packets" 	7327
scalar scenarioPRJP1.node[47].wlan.mac 	"number of collisions" 	118432
scalar scenarioPRJP1.node[47].wlan.mac 	"number of internal collisions" 	0
scalar scenarioPRJP1.node[47].wlan.mac 	"number of retry for AC 0" 	18166
scalar scenarioPRJP1.node[47].wlan.mac 	"number of retry for AC 1" 	41
scalar scenarioPRJP1.node[47].wlan.mac 	"number of retry for AC 2" 	0
scalar scenarioPRJP1.node[47].wlan.mac 	"number of retry for AC 3" 	0
scalar scenarioPRJP1.node[47].wlan.mac 	"sent and received bits" 	68301776
scalar scenarioPRJP1.node[47].wlan.mac 	"sent packet within AC 0" 	7080
scalar scenarioPRJP1.node[47].wlan.mac 	"sent packet within AC 1" 	53
scalar scenarioPRJP1.node[47].wlan.mac 	"sent packet within AC 2" 	0
scalar scenarioPRJP1.node[47].wlan.mac 	"sent packet within AC 3" 	0
scalar scenarioPRJP1.node[47].wlan.mac 	"sent in TXOP " 	0
scalar scenarioPRJP1.node[47].wlan.mac 	"sentWithoutRetry AC 0" 	4798
scalar scenarioPRJP1.node[47].wlan.mac 	"sentWithoutRetry AC 1" 	40
scalar scenarioPRJP1.node[47].wlan.mac 	"sentWithoutRetry AC 2" 	0
scalar scenarioPRJP1.node[47].wlan.mac 	"sentWithoutRetry AC 3" 	0
scalar scenarioPRJP1.node[47].wlan.mac 	"numGivenUp AC 0" 	1966
scalar scenarioPRJP1.node[47].wlan.mac 	"numGivenUp AC 1" 	2
scalar scenarioPRJP1.node[47].wlan.mac 	"numGivenUp AC 2" 	0
scalar scenarioPRJP1.node[47].wlan.mac 	"numGivenUp AC 3" 	0
scalar scenarioPRJP1.node[47].wlan.mac 	"numDropped AC 0" 	31
scalar scenarioPRJP1.node[47].wlan.mac 	"numDropped AC 1" 	0
scalar scenarioPRJP1.node[47].wlan.mac 	"numDropped AC 2" 	0
scalar scenarioPRJP1.node[47].wlan.mac 	"numDropped AC 3" 	0
scalar scenarioPRJP1.node[47].wlan.mac 	rcvdPkFromLL:count 	369956
attr interpolationmode  none
attr source  packetReceivedFromLower
attr title  "packets received from lower layer, count"
scalar scenarioPRJP1.node[47].wlan.mac 	rcvdPkFromLL:sum(packetBytes) 	123452374
attr interpolationmode  none
attr source  packetReceivedFromLower
attr title  "packets received from lower layer, sum(packetBytes)"
scalar scenarioPRJP1.node[47].wlan.mac 	sentDownPk:count 	62594
attr interpolationmode  none
attr source  packetSentToLower
attr title  "packets sent to lower layer, count"
scalar scenarioPRJP1.node[47].wlan.mac 	sentDownPk:sum(packetBytes) 	20085724
attr interpolationmode  none
attr source  packetSentToLower
attr title  "packets sent to lower layer, sum(packetBytes)"
scalar scenarioPRJP1.node[47].wlan.mac 	rcvdPkFromHL:count 	37091
attr interpolationmode  none
attr source  packetReceivedFromUpper
attr title  "packets received from higher layer, count"
scalar scenarioPRJP1.node[47].wlan.mac 	rcvdPkFromHL:sum(packetBytes) 	9676134
attr interpolationmode  none
attr source  packetReceivedFromUpper
attr title  "packets received from higher layer, sum(packetBytes)"
scalar scenarioPRJP1.node[47].wlan.mac 	passedUpPk:count 	117232
attr interpolationmode  none
attr source  packetSentToUpper
attr title  "packets passed to higher layer, count"
scalar scenarioPRJP1.node[47].wlan.mac 	passedUpPk:sum(packetBytes) 	22103124
attr interpolationmode  none
attr source  packetSentToUpper
attr title  "packets passed to higher layer, sum(packetBytes)"
statistic scenarioPRJP1.node[47].wlan.radio 	radioChannel:histogram
field count 1
field mean 3
field stddev -nan
field sum 3
field sqrsum 9
field min 3
field max 3
attr interpolationmode  sample-hold
attr source  radioChannelChanged
attr title  "Radio channel, histogram"
bin	-INF	0
bin	2	0
bin	3	1
bin	4	0
scalar scenarioPRJP1.node[47].wlan.radio 	transmissionState:count 	250376
attr interpolationmode  sample-hold
attr source  transmissionStateChanged
attr title  "Radio transmission state, count"
scalar scenarioPRJP1.node[47].wlan.radio 	receptionState:count 	1797753
attr interpolationmode  sample-hold
attr source  receptionStateChanged
attr title  "Radio reception state, count"
scalar scenarioPRJP1.node[47].wlan.radio 	radioMode:count 	125190
attr interpolationmode  sample-hold
attr source  radioModeChanged
attr title  "Radio mode, count"
statistic scenarioPRJP1.node[47].wlan.radio 	symbolErrorRate:histogram
field count 0
field mean -nan
field stddev -nan
field sum 0
field sqrsum 0
field min -nan
field max -nan
attr source  symbolErrorRate
attr title  "Symbol error rate, histogram"
bin	-INF	0
bin	-0.5	0
bin	-0.46666666666667	0
bin	-0.43333333333333	0
bin	-0.4	0
bin	-0.36666666666667	0
bin	-0.33333333333333	0
bin	-0.3	0
bin	-0.26666666666667	0
bin	-0.23333333333333	0
bin	-0.2	0
bin	-0.16666666666667	0
bin	-0.13333333333333	0
bin	-0.1	0
bin	-0.066666666666667	0
bin	-0.033333333333333	0
bin	0	0
bin	0.033333333333333	0
bin	0.066666666666667	0
bin	0.1	0
bin	0.13333333333333	0
bin	0.16666666666667	0
bin	0.2	0
bin	0.23333333333333	0
bin	0.26666666666667	0
bin	0.3	0
bin	0.33333333333333	0
bin	0.36666666666667	0
bin	0.4	0
bin	0.43333333333333	0
bin	0.46666666666667	0
bin	0.5	0
statistic scenarioPRJP1.node[47].wlan.radio 	bitErrorRate:histogram
field count 0
field mean -nan
field stddev -nan
field sum 0
field sqrsum 0
field min -nan
field max -nan
attr source  bitErrorRate
attr title  "Bit error rate, histogram"
bin	-INF	0
bin	-0.5	0
bin	-0.46666666666667	0
bin	-0.43333333333333	0
bin	-0.4	0
bin	-0.36666666666667	0
bin	-0.33333333333333	0
bin	-0.3	0
bin	-0.26666666666667	0
bin	-0.23333333333333	0
bin	-0.2	0
bin	-0.16666666666667	0
bin	-0.13333333333333	0
bin	-0.1	0
bin	-0.066666666666667	0
bin	-0.033333333333333	0
bin	0	0
bin	0.033333333333333	0
bin	0.066666666666667	0
bin	0.1	0
bin	0.13333333333333	0
bin	0.16666666666667	0
bin	0.2	0
bin	0.23333333333333	0
bin	0.26666666666667	0
bin	0.3	0
bin	0.33333333333333	0
bin	0.36666666666667	0
bin	0.4	0
bin	0.43333333333333	0
bin	0.46666666666667	0
bin	0.5	0
statistic scenarioPRJP1.node[47].wlan.radio 	packetErrorRate:histogram
field count 369956
field mean 0.29142931773778
field stddev 0.44317563204763
field sum 107816.024673
field sqrsum 104081.62941392
field min 0
field max 1
attr source  packetErrorRate
attr title  "Packet error rate, histogram"
bin	-INF	0
bin	-0.5	0
bin	-0.43333333333333	0
bin	-0.36666666666667	0
bin	-0.3	0
bin	-0.23333333333333	0
bin	-0.16666666666667	0
bin	-0.1	0
bin	-0.033333333333333	246950
bin	0.033333333333333	6103
bin	0.1	2981
bin	0.16666666666667	2034
bin	0.23333333333333	1642
bin	0.3	1302
bin	0.36666666666667	1189
bin	0.43333333333333	1117
bin	0.5	980
bin	0.56666666666667	977
bin	0.63333333333333	987
bin	0.7	1074
bin	0.76666666666667	1068
bin	0.83333333333333	1297
bin	0.9	2114
bin	0.96666666666667	98141
bin	1.0333333333333	0
bin	1.1	0
bin	1.1666666666667	0
bin	1.2333333333333	0
bin	1.3	0
bin	1.3666666666667	0
bin	1.4333333333333	0
bin	1.5	0
statistic scenarioPRJP1.node[47].wlan.radio 	minSNIR:histogram
field count 369956
field mean 5280.3043293918
field stddev 100015.86748185
field sum 1953480268.4845
field sqrsum 3.7110391143147e+15
field min 0.00013876465961733
field max 3012958.8769377
attr source  minSNIR
attr title  "Min SNIR, histogram"
bin	-INF	0
bin	-350189.14937744	0
bin	-303497.14856531	0
bin	-256805.14775319	0
bin	-210113.14694107	0
bin	-163421.14612894	0
bin	-116729.14531682	0
bin	-70037.144504697	0
bin	-23345.143692574	366042
bin	23346.857119549	1663
bin	70038.857931673	701
bin	116730.8587438	245
bin	163422.85955592	198
bin	210114.86036804	46
bin	256806.86118017	55
bin	303498.86199229	30
bin	350190.86280441	36
bin	396882.86361654	14
bin	443574.86442866	13
bin	490266.86524078	28
bin	536958.86605291	82
bin	583650.86686503	22
bin	630342.86767715	45
bin	677034.86848928	274
bin	723726.8693014	10
bin	770418.87011352	7
bin	817110.87092565	2
bin	863802.87173777	1
bin	910494.87254989	4
bin	957186.87336202	2
bin	1003878.8741741	3
bin	1050570.8749863	433
scalar scenarioPRJP1.node[47].lo0.lo 	droppedPkBitError:count 	0
attr interpolationmode  none
attr source  dropPkBitError
attr title  "packets dropped/bit error, count"
scalar scenarioPRJP1.node[47].lo0.lo 	droppedPkBitError:sum(packetBytes) 	0
attr interpolationmode  none
attr source  dropPkBitError
attr title  "packets dropped/bit error, sum(packetBytes)"
scalar scenarioPRJP1.node[47].lo0.lo 	rcvdPkFromHL:count 	0
attr interpolationmode  none
attr source  packetReceivedFromUpper
attr title  "packets received from higher layer, count"
scalar scenarioPRJP1.node[47].lo0.lo 	rcvdPkFromHL:sum(packetBytes) 	0
attr interpolationmode  none
attr source  packetReceivedFromUpper
attr title  "packets received from higher layer, sum(packetBytes)"
scalar scenarioPRJP1.node[47].lo0.lo 	passedUpPk:count 	0
attr interpolationmode  none
attr source  packetSentToUpper
attr title  "packets passed to higher layer, count"
scalar scenarioPRJP1.node[47].lo0.lo 	passedUpPk:sum(packetBytes) 	0
attr interpolationmode  none
attr source  packetSentToUpper
attr title  "packets passed to higher layer, sum(packetBytes)"
scalar scenarioPRJP1.node[53].app 	"Total sent" 	5001
scalar scenarioPRJP1.node[53].app 	"Total received" 	1092
scalar scenarioPRJP1.node[53].app 	"Total deleted" 	137
scalar scenarioPRJP1.node[53].app 	dropPk:count 	137
attr interpolationmode  none
attr source  dropPk
attr title  "packets dropped, count"
scalar scenarioPRJP1.node[53].app 	dropPk:sum(packetBytes) 	70144
attr interpolationmode  none
attr source  dropPk
attr title  "packets dropped, sum(packetBytes)"
scalar scenarioPRJP1.node[53].app 	outOfOrderPk:count 	1
attr interpolationmode  none
attr source  outOfOrderPk
attr title  "packets received out of order, count"
scalar scenarioPRJP1.node[53].app 	outOfOrderPk:sum(packetBytes) 	512
attr interpolationmode  none
attr source  outOfOrderPk
attr title  "packets received out of order, sum(packetBytes)"
scalar scenarioPRJP1.node[53].app 	rcvdPk:count 	1092
attr interpolationmode  none
attr source  rcvdPk
attr title  "packets received, count"
scalar scenarioPRJP1.node[53].app 	rcvdPk:sum(packetBytes) 	559104
attr interpolationmode  none
attr source  rcvdPk
attr title  "packets received, sum(packetBytes)"
statistic scenarioPRJP1.node[53].app 	endToEndDelay:histogram
field count 1092
field mean 3.8784988567956
field stddev 5.2797094250374
field sum 4235.3207516208
field sqrsum 46838.673482921
field min 0.000891049078
field max 19.965000926236
attr interpolationmode  none
attr source  messageAge(rcvdPk)
attr title  "delay, histogram"
attr unit  s
bin	-INF	0
bin	-9.476221569541	0
bin	-8.2126065537251	0
bin	-6.9489915379093	0
bin	-5.6853765220934	0
bin	-4.4217615062775	0
bin	-3.1581464904617	0
bin	-1.8945314746458	0
bin	-0.63091645882993	512
bin	0.63269855698593	111
bin	1.8963135728018	66
bin	3.1599285886177	61
bin	4.4235436044335	43
bin	5.6871586202494	45
bin	6.9507736360653	35
bin	8.2143886518811	32
bin	9.478003667697	30
bin	10.741618683513	30
bin	12.005233699329	23
bin	13.268848715145	25
bin	14.53246373096	22
bin	15.796078746776	23
bin	17.059693762592	22
bin	18.323308778408	9
bin	19.586923794224	3
bin	20.85053881004	0
bin	22.114153825856	0
bin	23.377768841672	0
bin	24.641383857487	0
bin	25.904998873303	0
bin	27.168613889119	0
bin	28.432228904935	0
scalar scenarioPRJP1.node[53].app 	sentPk:count 	5001
attr interpolationmode  none
attr source  sentPk
attr title  "packets sent, count"
scalar scenarioPRJP1.node[53].app 	sentPk:sum(packetBytes) 	2560512
attr interpolationmode  none
attr source  sentPk
attr title  "packets sent, sum(packetBytes)"
scalar scenarioPRJP1.node[53].udp 	droppedPkBadChecksum:count 	0
attr interpolationmode  none
attr title  "packets dropped (checksum error), count"
scalar scenarioPRJP1.node[53].udp 	droppedPkWrongPort:count 	18
attr interpolationmode  none
attr title  "packets dropped (wrong port), count"
scalar scenarioPRJP1.node[53].udp 	passedUpPk:count 	1230
attr interpolationmode  none
attr title  "packets passed up, count"
scalar scenarioPRJP1.node[53].udp 	rcvdPk:count 	1248
attr interpolationmode  none
attr source  rcvdPk
attr title  "packets received, count"
scalar scenarioPRJP1.node[53].udp 	rcvdPk:sum(packetBytes) 	648960
attr interpolationmode  none
attr source  rcvdPk
attr title  "packets received, sum(packetBytes)"
scalar scenarioPRJP1.node[53].udp 	sentPk:count 	5001
attr interpolationmode  none
attr source  sentPk
attr title  "packets sent, count"
scalar scenarioPRJP1.node[53].udp 	sentPk:sum(packetBytes) 	2600520
attr interpolationmode  none
attr source  sentPk
attr title  "packets sent, sum(packetBytes)"
scalar scenarioPRJP1.node[53].networkLayer.arp 	failedARPResolution:count 	22
attr title  "ARP failed resolutions, count"
scalar scenarioPRJP1.node[53].networkLayer.arp 	completedARPResolution:count 	1513
attr title  "ARP completed resolutions, count"
scalar scenarioPRJP1.node[53].networkLayer.arp 	initiatedARPResolution:count 	146
attr title  "ARP initiated resolutions, count"
scalar scenarioPRJP1.node[53].networkLayer.arp 	sentReply:count 	115
attr title  "ARP replies sent, count"
scalar scenarioPRJP1.node[53].networkLayer.arp 	sentReq:count 	252
attr title  "ARP request sent, count"
scalar scenarioPRJP1.node[53].mobility 	startTime 	4.9
scalar scenarioPRJP1.node[53].mobility 	totalTime 	1827.5
scalar scenarioPRJP1.node[53].mobility 	stopTime 	1832.5
scalar scenarioPRJP1.node[53].mobility 	minSpeed 	2.4759595713092e-13
scalar scenarioPRJP1.node[53].mobility 	maxSpeed 	16.455404028999
scalar scenarioPRJP1.node[53].mobility 	totalDistance 	16735.859402773
scalar scenarioPRJP1.node[53].mobility 	totalCO2Emission 	4536.4122618646
scalar scenarioPRJP1.node[53].wlan.mgmt 	dataQueueLen:max 	27
attr interpolationmode  sample-hold
attr title  "data queue length, max"
scalar scenarioPRJP1.node[53].wlan.mgmt 	dataQueueLen:timeavg 	0
attr interpolationmode  sample-hold
attr title  "data queue length, timeavg"
scalar scenarioPRJP1.node[53].wlan.mgmt 	dropPkByQueue:count 	0
attr interpolationmode  none
attr source  dropPkByQueue
attr title  "packets dropped by queue, count"
scalar scenarioPRJP1.node[53].wlan.mgmt 	dropPkByQueue:sum(packetBytes) 	0
attr interpolationmode  none
attr source  dropPkByQueue
attr title  "packets dropped by queue, sum(packetBytes)"
scalar scenarioPRJP1.node[53].wlan.mac 	"number of received packets" 	6605
scalar scenarioPRJP1.node[53].wlan.mac 	"number of collisions" 	136035
scalar scenarioPRJP1.node[53].wlan.mac 	"number of internal collisions" 	0
scalar scenarioPRJP1.node[53].wlan.mac 	"number of retry for AC 0" 	18339
scalar scenarioPRJP1.node[53].wlan.mac 	"number of retry for AC 1" 	55
scalar scenarioPRJP1.node[53].wlan.mac 	"number of retry for AC 2" 	0
scalar scenarioPRJP1.node[53].wlan.mac 	"number of retry for AC 3" 	0
scalar scenarioPRJP1.node[53].wlan.mac 	"sent and received bits" 	68576136
scalar scenarioPRJP1.node[53].wlan.mac 	"sent packet within AC 0" 	6720
scalar scenarioPRJP1.node[53].wlan.mac 	"sent packet within AC 1" 	23
scalar scenarioPRJP1.node[53].wlan.mac 	"sent packet within AC 2" 	0
scalar scenarioPRJP1.node[53].wlan.mac 	"sent packet within AC 3" 	0
scalar scenarioPRJP1.node[53].wlan.mac 	"sent in TXOP " 	0
scalar scenarioPRJP1.node[53].wlan.mac 	"sentWithoutRetry AC 0" 	4446
scalar scenarioPRJP1.node[53].wlan.mac 	"sentWithoutRetry AC 1" 	14
scalar scenarioPRJP1.node[53].wlan.mac 	"sentWithoutRetry AC 2" 	0
scalar scenarioPRJP1.node[53].wlan.mac 	"sentWithoutRetry AC 3" 	0
scalar scenarioPRJP1.node[53].wlan.mac 	"numGivenUp AC 0" 	1978
scalar scenarioPRJP1.node[53].wlan.mac 	"numGivenUp AC 1" 	3
scalar scenarioPRJP1.node[53].wlan.mac 	"numGivenUp AC 2" 	0
scalar scenarioPRJP1.node[53].wlan.mac 	"numGivenUp AC 3" 	0
scalar scenarioPRJP1.node[53].wlan.mac 	"numDropped AC 0" 	0
scalar scenarioPRJP1.node[53].wlan.mac 	"numDropped AC 1" 	0
scalar scenarioPRJP1.node[53].wlan.mac 	"numDropped AC 2" 	0
scalar scenarioPRJP1.node[53].wlan.mac 	"numDropped AC 3" 	0
scalar scenarioPRJP1.node[53].wlan.mac 	rcvdPkFromLL:count 	398047
attr interpolationmode  none
attr source  packetReceivedFromLower
attr title  "packets received from lower layer, count"
scalar scenarioPRJP1.node[53].wlan.mac 	rcvdPkFromLL:sum(packetBytes) 	133284837
attr interpolationmode  none
attr source  packetReceivedFromLower
attr title  "packets received from lower layer, sum(packetBytes)"
scalar scenarioPRJP1.node[53].wlan.mac 	sentDownPk:count 	62607
attr interpolationmode  none
attr source  packetSentToLower
attr title  "packets sent to lower layer, count"
scalar scenarioPRJP1.node[53].wlan.mac 	sentDownPk:sum(packetBytes) 	20143823
attr interpolationmode  none
attr source  packetSentToLower
attr title  "packets sent to lower layer, sum(packetBytes)"
scalar scenarioPRJP1.node[53].wlan.mac 	rcvdPkFromHL:count 	37608
attr interpolationmode  none
attr source  packetReceivedFromUpper
attr title  "packets received from higher layer, count"
scalar scenarioPRJP1.node[53].wlan.mac 	rcvdPkFromHL:sum(packetBytes) 	9695233
attr interpolationmode  none
attr source  packetReceivedFromUpper
attr title  "packets received from higher layer, sum(packetBytes)"
scalar scenarioPRJP1.node[53].wlan.mac 	passedUpPk:count 	121788
attr interpolationmode  none
attr source  packetSentToUpper
attr title  "packets passed to higher layer, count"
scalar scenarioPRJP1.node[53].wlan.mac 	passedUpPk:sum(packetBytes) 	22616711
attr interpolationmode  none
attr source  packetSentToUpper
attr title  "packets passed to higher layer, sum(packetBytes)"
statistic scenarioPRJP1.node[53].wlan.radio 	radioChannel:histogram
field count 1
field mean 3
field stddev -nan
field sum 3
field sqrsum 9
field min 3
field max 3
attr interpolationmode  sample-hold
attr source  radioChannelChanged
attr title  "Radio channel, histogram"
bin	-INF	0
bin	2	0
bin	3	1
bin	4	0
scalar scenarioPRJP1.node[53].wlan.radio 	transmissionState:count 	250428
attr interpolationmode  sample-hold
attr source  transmissionStateChanged
attr title  "Radio transmission state, count"
scalar scenarioPRJP1.node[53].wlan.radio 	receptionState:count 	1900124
attr interpolationmode  sample-hold
attr source  receptionStateChanged
attr title  "Radio reception state, count"
scalar scenarioPRJP1.node[53].wlan.radio 	radioMode:count 	125216
attr interpolationmode  sample-hold
attr source  radioModeChanged
attr title  "Radio mode, count"
statistic scenarioPRJP1.node[53].wlan.radio 	symbolErrorRate:histogram
field count 0
field mean -nan
field stddev -nan
field sum 0
field sqrsum 0
field min -nan
field max -nan
attr source  symbolErrorRate
attr title  "Symbol error rate, histogram"
bin	-INF	0
bin	-0.5	0
bin	-0.46666666666667	0
bin	-0.43333333333333	0
bin	-0.4	0
bin	-0.36666666666667	0
bin	-0.33333333333333	0
bin	-0.3	0
bin	-0.26666666666667	0
bin	-0.23333333333333	0
bin	-0.2	0
bin	-0.16666666666667	0
bin	-0.13333333333333	0
bin	-0.1	0
bin	-0.066666666666667	0
bin	-0.033333333333333	0
bin	0	0
bin	0.033333333333333	0
bin	0.066666666666667	0
bin	0.1	0
bin	0.13333333333333	0
bin	0.16666666666667	0
bin	0.2	0
bin	0.23333333333333	0
bin	0.26666666666667	0
bin	0.3	0
bin	0.33333333333333	0
bin	0.36666666666667	0
bin	0.4	0
bin	0.43333333333333	0
bin	0.46666666666667	0
bin	0.5	0
statistic scenarioPRJP1.node[53].wlan.radio 	bitErrorRate:histogram
field count 0
field mean -nan
field stddev -nan
field sum 0
field sqrsum 0
field min -nan
field max -nan
attr source  bitErrorRate
attr title  "Bit error rate, histogram"
bin	-INF	0
bin	-0.5	0
bin	-0.46666666666667	0
bin	-0.43333333333333	0
bin	-0.4	0
bin	-0.36666666666667	0
bin	-0.33333333333333	0
bin	-0.3	0
bin	-0.26666666666667	0
bin	-0.23333333333333	0
bin	-0.2	0
bin	-0.16666666666667	0
bin	-0.13333333333333	0
bin	-0.1	0
bin	-0.066666666666667	0
bin	-0.033333333333333	0
bin	0	0
bin	0.033333333333333	0
bin	0.066666666666667	0
bin	0.1	0
bin	0.13333333333333	0
bin	0.16666666666667	0
bin	0.2	0
bin	0.23333333333333	0
bin	0.26666666666667	0
bin	0.3	0
bin	0.33333333333333	0
bin	0.36666666666667	0
bin	0.4	0
bin	0.43333333333333	0
bin	0.46666666666667	0
bin	0.5	0
statistic scenarioPRJP1.node[53].wlan.radio 	packetErrorRate:histogram
field count 398047
field mean 0.31201670896467
field stddev 0.45246714917451
field sum 124197.31495326
field sqrsum 120242.21028461
field min 0
field max 1
attr source  packetErrorRate
attr title  "Packet error rate, histogram"
bin	-INF	0
bin	-1	0
bin	0	297349
bin	1	100698
bin	2	0
statistic scenarioPRJP1.node[53].wlan.radio 	minSNIR:histogram
field count 398047
field mean 3909.0551222537
field stddev 75262.841761194
field sum 1555987664.2477
field sqrsum 2.2608121576235e+15
field min 0.00010668516101861
field max 4377958.6056181
attr source  minSNIR
attr title  "Min SNIR, histogram"
bin	-INF	0
bin	-338403.56267822	0
bin	-293282.94622493	0
bin	-248162.32977163	0
bin	-203041.71331834	0
bin	-157921.09686504	0
bin	-112800.48041175	0
bin	-67679.863958456	0
bin	-22559.247505162	393949
bin	22561.368948132	1734
bin	67681.985401426	933
bin	112802.60185472	182
bin	157923.21830801	156
bin	203043.83476131	41
bin	248164.4512146	33
bin	293285.0676679	21
bin	338405.68412119	24
bin	383526.30057448	11
bin	428646.91702778	35
bin	473767.53348107	29
bin	518888.14993437	27
bin	564008.76638766	152
bin	609129.38284095	11
bin	654249.99929425	36
bin	699370.61574754	368
bin	744491.23220084	2
bin	789611.84865413	4
bin	834732.46510742	2
bin	879853.08156072	17
bin	924973.69801401	3
bin	970094.31446731	0
bin	1015214.9309206	277
scalar scenarioPRJP1.node[53].lo0.lo 	droppedPkBitError:count 	0
attr interpolationmode  none
attr source  dropPkBitError
attr title  "packets dropped/bit error, count"
scalar scenarioPRJP1.node[53].lo0.lo 	droppedPkBitError:sum(packetBytes) 	0
attr interpolationmode  none
attr source  dropPkBitError
attr title  "packets dropped/bit error, sum(packetBytes)"
scalar scenarioPRJP1.node[53].lo0.lo 	rcvdPkFromHL:count 	0
attr interpolationmode  none
attr source  packetReceivedFromUpper
attr title  "packets received from higher layer, count"
scalar scenarioPRJP1.node[53].lo0.lo 	rcvdPkFromHL:sum(packetBytes) 	0
attr interpolationmode  none
attr source  packetReceivedFromUpper
attr title  "packets received from higher layer, sum(packetBytes)"
scalar scenarioPRJP1.node[53].lo0.lo 	passedUpPk:count 	0
attr interpolationmode  none
attr source  packetSentToUpper
attr title  "packets passed to higher layer, count"
scalar scenarioPRJP1.node[53].lo0.lo 	passedUpPk:sum(packetBytes) 	0
attr interpolationmode  none
attr source  packetSentToUpper
attr title  "packets passed to higher layer, sum(packetBytes)"
scalar scenarioPRJP1.node[51].app 	"Total sent" 	5034
scalar scenarioPRJP1.node[51].app 	"Total received" 	1031
scalar scenarioPRJP1.node[51].app 	"Total deleted" 	141
scalar scenarioPRJP1.node[51].app 	dropPk:count 	141
attr interpolationmode  none
attr source  dropPk
attr title  "packets dropped, count"
scalar scenarioPRJP1.node[51].app 	dropPk:sum(packetBytes) 	72192
attr interpolationmode  none
attr source  dropPk
attr title  "packets dropped, sum(packetBytes)"
scalar scenarioPRJP1.node[51].app 	outOfOrderPk:count 	2
attr interpolationmode  none
attr source  outOfOrderPk
attr title  "packets received out of order, count"
scalar scenarioPRJP1.node[51].app 	outOfOrderPk:sum(packetBytes) 	1024
attr interpolationmode  none
attr source  outOfOrderPk
attr title  "packets received out of order, sum(packetBytes)"
scalar scenarioPRJP1.node[51].app 	rcvdPk:count 	1031
attr interpolationmode  none
attr source  rcvdPk
attr title  "packets received, count"
scalar scenarioPRJP1.node[51].app 	rcvdPk:sum(packetBytes) 	527872
attr interpolationmode  none
attr source  rcvdPk
attr title  "packets received, sum(packetBytes)"
statistic scenarioPRJP1.node[51].app 	endToEndDelay:histogram
field count 1031
field mean 4.0944232198035
field stddev 5.6175430017618
field sum 4221.3503396174
field sqrsum 49787.487907397
field min 0.000891012509
field max 19.862042988872
attr interpolationmode  none
attr source  messageAge(rcvdPk)
attr title  "delay, histogram"
attr unit  s
bin	-INF	0
bin	-9.118778473192	0
bin	-7.9028201400609	0
bin	-6.6868618069299	0
bin	-5.4709034737988	0
bin	-4.2549451406677	0
bin	-3.0389868075367	0
bin	-1.8230284744056	0
bin	-0.60707014127453	513
bin	0.60888819185653	79
bin	1.8248465249876	52
bin	3.0408048581187	37
bin	4.2567631912497	38
bin	5.4727215243808	35
bin	6.6886798575119	46
bin	7.9046381906429	29
bin	9.120596523774	27
bin	10.336554856905	24
bin	11.552513190036	31
bin	12.768471523167	24
bin	13.984429856298	19
bin	15.200388189429	18
bin	16.41634652256	25
bin	17.632304855691	21
bin	18.848263188823	13
bin	20.064221521954	0
bin	21.280179855085	0
bin	22.496138188216	0
bin	23.712096521347	0
bin	24.928054854478	0
bin	26.144013187609	0
bin	27.35997152074	0
scalar scenarioPRJP1.node[51].app 	sentPk:count 	5034
attr interpolationmode  none
attr source  sentPk
attr title  "packets sent, count"
scalar scenarioPRJP1.node[51].app 	sentPk:sum(packetBytes) 	2577408
attr interpolationmode  none
attr source  sentPk
attr title  "packets sent, sum(packetBytes)"
scalar scenarioPRJP1.node[51].udp 	droppedPkBadChecksum:count 	0
attr interpolationmode  none
attr title  "packets dropped (checksum error), count"
scalar scenarioPRJP1.node[51].udp 	droppedPkWrongPort:count 	4
attr interpolationmode  none
attr title  "packets dropped (wrong port), count"
scalar scenarioPRJP1.node[51].udp 	passedUpPk:count 	1174
attr interpolationmode  none
attr title  "packets passed up, count"
scalar scenarioPRJP1.node[51].udp 	rcvdPk:count 	1178
attr interpolationmode  none
attr source  rcvdPk
attr title  "packets received, count"
scalar scenarioPRJP1.node[51].udp 	rcvdPk:sum(packetBytes) 	612560
attr interpolationmode  none
attr source  rcvdPk
attr title  "packets received, sum(packetBytes)"
scalar scenarioPRJP1.node[51].udp 	sentPk:count 	5034
attr interpolationmode  none
attr source  sentPk
attr title  "packets sent, count"
scalar scenarioPRJP1.node[51].udp 	sentPk:sum(packetBytes) 	2617680
attr interpolationmode  none
attr source  sentPk
attr title  "packets sent, sum(packetBytes)"
scalar scenarioPRJP1.node[51].networkLayer.arp 	failedARPResolution:count 	24
attr title  "ARP failed resolutions, count"
scalar scenarioPRJP1.node[51].networkLayer.arp 	completedARPResolution:count 	1536
attr title  "ARP completed resolutions, count"
scalar scenarioPRJP1.node[51].networkLayer.arp 	initiatedARPResolution:count 	166
attr title  "ARP initiated resolutions, count"
scalar scenarioPRJP1.node[51].networkLayer.arp 	sentReply:count 	108
attr title  "ARP replies sent, count"
scalar scenarioPRJP1.node[51].networkLayer.arp 	sentReq:count 	269
attr title  "ARP request sent, count"
scalar scenarioPRJP1.node[51].mobility 	startTime 	4.9
scalar scenarioPRJP1.node[51].mobility 	totalTime 	1875
scalar scenarioPRJP1.node[51].mobility 	stopTime 	1880
scalar scenarioPRJP1.node[51].mobility 	minSpeed 	2.4754597855269e-13
scalar scenarioPRJP1.node[51].mobility 	maxSpeed 	17.481922837382
scalar scenarioPRJP1.node[51].mobility 	totalDistance 	19686.972833916
scalar scenarioPRJP1.node[51].mobility 	totalCO2Emission 	5032.9104545707
scalar scenarioPRJP1.node[51].wlan.mgmt 	dataQueueLen:max 	94
attr interpolationmode  sample-hold
attr title  "data queue length, max"
scalar scenarioPRJP1.node[51].wlan.mgmt 	dataQueueLen:timeavg 	0.0045317043940046
attr interpolationmode  sample-hold
attr title  "data queue length, timeavg"
scalar scenarioPRJP1.node[51].wlan.mgmt 	dropPkByQueue:count 	0
attr interpolationmode  none
attr source  dropPkByQueue
attr title  "packets dropped by queue, count"
scalar scenarioPRJP1.node[51].wlan.mgmt 	dropPkByQueue:sum(packetBytes) 	0
attr interpolationmode  none
attr source  dropPkByQueue
attr title  "packets dropped by queue, sum(packetBytes)"
scalar scenarioPRJP1.node[51].wlan.mac 	"number of received packets" 	8075
scalar scenarioPRJP1.node[51].wlan.mac 	"number of collisions" 	121739
scalar scenarioPRJP1.node[51].wlan.mac 	"number of internal collisions" 	2
scalar scenarioPRJP1.node[51].wlan.mac 	"number of retry for AC 0" 	19496
scalar scenarioPRJP1.node[51].wlan.mac 	"number of retry for AC 1" 	5
scalar scenarioPRJP1.node[51].wlan.mac 	"number of retry for AC 2" 	0
scalar scenarioPRJP1.node[51].wlan.mac 	"number of retry for AC 3" 	0
scalar scenarioPRJP1.node[51].wlan.mac 	"sent and received bits" 	73131824
scalar scenarioPRJP1.node[51].wlan.mac 	"sent packet within AC 0" 	7740
scalar scenarioPRJP1.node[51].wlan.mac 	"sent packet within AC 1" 	15
scalar scenarioPRJP1.node[51].wlan.mac 	"sent packet within AC 2" 	0
scalar scenarioPRJP1.node[51].wlan.mac 	"sent packet within AC 3" 	0
scalar scenarioPRJP1.node[51].wlan.mac 	"sent in TXOP " 	0
scalar scenarioPRJP1.node[51].wlan.mac 	"sentWithoutRetry AC 0" 	5189
scalar scenarioPRJP1.node[51].wlan.mac 	"sentWithoutRetry AC 1" 	13
scalar scenarioPRJP1.node[51].wlan.mac 	"sentWithoutRetry AC 2" 	0
scalar scenarioPRJP1.node[51].wlan.mac 	"sentWithoutRetry AC 3" 	0
scalar scenarioPRJP1.node[51].wlan.mac 	"numGivenUp AC 0" 	2093
scalar scenarioPRJP1.node[51].wlan.mac 	"numGivenUp AC 1" 	0
scalar scenarioPRJP1.node[51].wlan.mac 	"numGivenUp AC 2" 	0
scalar scenarioPRJP1.node[51].wlan.mac 	"numGivenUp AC 3" 	0
scalar scenarioPRJP1.node[51].wlan.mac 	"numDropped AC 0" 	29
scalar scenarioPRJP1.node[51].wlan.mac 	"numDropped AC 1" 	0
scalar scenarioPRJP1.node[51].wlan.mac 	"numDropped AC 2" 	0
scalar scenarioPRJP1.node[51].wlan.mac 	"numDropped AC 3" 	0
scalar scenarioPRJP1.node[51].wlan.mac 	rcvdPkFromLL:count 	386316
attr interpolationmode  none
attr source  packetReceivedFromLower
attr title  "packets received from lower layer, count"
scalar scenarioPRJP1.node[51].wlan.mac 	rcvdPkFromLL:sum(packetBytes) 	127569695
attr interpolationmode  none
attr source  packetReceivedFromLower
attr title  "packets received from lower layer, sum(packetBytes)"
scalar scenarioPRJP1.node[51].wlan.mac 	sentDownPk:count 	66292
attr interpolationmode  none
attr source  packetSentToLower
attr title  "packets sent to lower layer, count"
scalar scenarioPRJP1.node[51].wlan.mac 	sentDownPk:sum(packetBytes) 	21502526
attr interpolationmode  none
attr source  packetSentToLower
attr title  "packets sent to lower layer, sum(packetBytes)"
scalar scenarioPRJP1.node[51].wlan.mac 	rcvdPkFromHL:count 	38747
attr interpolationmode  none
attr source  packetReceivedFromUpper
attr title  "packets received from higher layer, count"
scalar scenarioPRJP1.node[51].wlan.mac 	rcvdPkFromHL:sum(packetBytes) 	10352720
attr interpolationmode  none
attr source  packetReceivedFromUpper
attr title  "packets received from higher layer, sum(packetBytes)"
scalar scenarioPRJP1.node[51].wlan.mac 	passedUpPk:count 	124812
attr interpolationmode  none
attr source  packetSentToUpper
attr title  "packets passed to higher layer, count"
scalar scenarioPRJP1.node[51].wlan.mac 	passedUpPk:sum(packetBytes) 	23703311
attr interpolationmode  none
attr source  packetSentToUpper
attr title  "packets passed to higher layer, sum(packetBytes)"
statistic scenarioPRJP1.node[51].wlan.radio 	radioChannel:histogram
field count 1
field mean 3
field stddev -nan
field sum 3
field sqrsum 9
field min 3
field max 3
attr interpolationmode  sample-hold
attr source  radioChannelChanged
attr title  "Radio channel, histogram"
bin	-INF	0
bin	2	0
bin	3	1
bin	4	0
scalar scenarioPRJP1.node[51].wlan.radio 	transmissionState:count 	265168
attr interpolationmode  sample-hold
attr source  transmissionStateChanged
attr title  "Radio transmission state, count"
scalar scenarioPRJP1.node[51].wlan.radio 	receptionState:count 	1697077
attr interpolationmode  sample-hold
attr source  receptionStateChanged
attr title  "Radio reception state, count"
scalar scenarioPRJP1.node[51].wlan.radio 	radioMode:count 	132586
attr interpolationmode  sample-hold
attr source  radioModeChanged
attr title  "Radio mode, count"
statistic scenarioPRJP1.node[51].wlan.radio 	symbolErrorRate:histogram
field count 0
field mean -nan
field stddev -nan
field sum 0
field sqrsum 0
field min -nan
field max -nan
attr source  symbolErrorRate
[...]
field max 3
attr interpolationmode  sample-hold
attr source  radioChannelChanged
attr title  "Radio channel, histogram"
bin	-INF	0
bin	2	0
bin	3	1
bin	4	0
scalar scenarioPRJP1.node[56].wlan.radio 	transmissionState:count 	239268
attr interpolationmode  sample-hold
attr source  transmissionStateChanged
attr title  "Radio transmission state, count"
scalar scenarioPRJP1.node[56].wlan.radio 	receptionState:count 	1661532
attr interpolationmode  sample-hold
attr source  receptionStateChanged
attr title  "Radio reception state, count"
scalar scenarioPRJP1.node[56].wlan.radio 	radioMode:count 	119636
attr interpolationmode  sample-hold
attr source  radioModeChanged
attr title  "Radio mode, count"
statistic scenarioPRJP1.node[56].wlan.radio 	symbolErrorRate:histogram
field count 0
field mean -nan
field stddev -nan
field sum 0
field sqrsum 0
field min -nan
field max -nan
attr source  symbolErrorRate
attr title  "Symbol error rate, histogram"
bin	-INF	0
bin	-0.5	0
bin	-0.46666666666667	0
bin	-0.43333333333333	0
bin	-0.4	0
bin	-0.36666666666667	0
bin	-0.33333333333333	0
bin	-0.3	0
bin	-0.26666666666667	0
bin	-0.23333333333333	0
bin	-0.2	0
bin	-0.16666666666667	0
bin	-0.13333333333333	0
bin	-0.1	0
bin	-0.066666666666667	0
bin	-0.033333333333333	0
bin	0	0
bin	0.033333333333333	0
bin	0.066666666666667	0
bin	0.1	0
bin	0.13333333333333	0
bin	0.16666666666667	0
bin	0.2	0
bin	0.23333333333333	0
bin	0.26666666666667	0
bin	0.3	0
bin	0.33333333333333	0
bin	0.36666666666667	0
bin	0.4	0
bin	0.43333333333333	0
bin	0.46666666666667	0
bin	0.5	0
statistic scenarioPRJP1.node[56].wlan.radio 	bitErrorRate:histogram
field count 0
field mean -nan
field stddev -nan
field sum 0
field sqrsum 0
field min -nan
field max -nan
attr source  bitErrorRate
attr title  "Bit error rate, histogram"
bin	-INF	0
bin	-0.5	0
bin	-0.46666666666667	0
bin	-0.43333333333333	0
bin	-0.4	0
bin	-0.36666666666667	0
bin	-0.33333333333333	0
bin	-0.3	0
bin	-0.26666666666667	0
bin	-0.23333333333333	0
bin	-0.2	0
bin	-0.16666666666667	0
bin	-0.13333333333333	0
bin	-0.1	0
bin	-0.066666666666667	0
bin	-0.033333333333333	0
bin	0	0
bin	0.033333333333333	0
bin	0.066666666666667	0
bin	0.1	0
bin	0.13333333333333	0
bin	0.16666666666667	0
bin	0.2	0
bin	0.23333333333333	0
bin	0.26666666666667	0
bin	0.3	0
bin	0.33333333333333	0
bin	0.36666666666667	0
bin	0.4	0
bin	0.43333333333333	0
bin	0.46666666666667	0
bin	0.5	0
statistic scenarioPRJP1.node[56].wlan.radio 	packetErrorRate:histogram
field count 361623
field mean 0.2897972654982
field stddev 0.44317524167775
field sum 104797.35654125
field sqrsum 101394.10126433
field min 0
field max 1
attr source  packetErrorRate
attr title  "Packet error rate, histogram"
bin	-INF	118837
bin	-1.110485037259e-10	0
bin	-9.6242036562444e-11	0
bin	-8.1435569398991e-11	0
bin	-6.6629102235538e-11	0
bin	-5.1822635072085e-11	0
bin	-3.7016167908632e-11	0
bin	-2.2209700745179e-11	0
bin	-7.4032335817265e-12	178982
bin	7.4032335817264e-12	1953
bin	2.2209700745179e-11	863
bin	3.7016167908632e-11	584
bin	5.1822635072085e-11	466
bin	6.6629102235538e-11	367
bin	8.1435569398991e-11	318
bin	9.6242036562444e-11	257
bin	1.110485037259e-10	211
bin	1.2585497088935e-10	205
bin	1.406614380528e-10	173
bin	1.5546790521626e-10	152
bin	1.7027437237971e-10	139
bin	1.8508083954316e-10	134
bin	1.9988730670661e-10	137
bin	2.1469377387007e-10	106
bin	2.2950024103352e-10	125
bin	2.4430670819697e-10	127
bin	2.5911317536043e-10	105
bin	2.7391964252388e-10	92
bin	2.8872610968733e-10	105
bin	3.0353257685078e-10	101
bin	3.1833904401424e-10	81
bin	3.3314551117769e-10	57003
statistic scenarioPRJP1.node[56].wlan.radio 	minSNIR:histogram
field count 361623
field mean 4779.693251901
field stddev 86163.971468139
field sum 1728447012.8322
field sqrsum 2.6930263400481e+15
field min 0.00011032504679827
field max 5473881.7759929
attr source  minSNIR
attr title  "Min SNIR, histogram"
bin	-INF	0
bin	-197902.68570378	0
bin	-171514.91575818	0
bin	-145127.14581257	0
bin	-118739.37586697	0
bin	-92351.605921363	0
bin	-65963.835975758	0
bin	-39576.066030153	0
bin	-13188.296084549	354477
bin	13199.473861056	3802
bin	39587.24380666	1001
bin	65975.013752265	440
bin	92362.78369787	225
bin	118750.55364347	150
bin	145138.32358908	130
bin	171526.09353468	104
bin	197913.86348029	63
bin	224301.63342589	33
bin	250689.4033715	105
bin	277077.1733171	59
bin	303464.94326271	31
bin	329852.71320831	93
bin	356240.48315392	20
bin	382628.25309952	12
bin	409016.02304513	10
bin	435403.79299073	12
bin	461791.56293633	12
bin	488179.33288194	7
bin	514567.10282754	23
bin	540954.87277315	29
bin	567342.64271875	68
bin	593730.41266436	717
scalar scenarioPRJP1.node[56].lo0.lo 	droppedPkBitError:count 	0
attr interpolationmode  none
attr source  dropPkBitError
attr title  "packets dropped/bit error, count"
scalar scenarioPRJP1.node[56].lo0.lo 	droppedPkBitError:sum(packetBytes) 	0
attr interpolationmode  none
attr source  dropPkBitError
attr title  "packets dropped/bit error, sum(packetBytes)"
scalar scenarioPRJP1.node[56].lo0.lo 	rcvdPkFromHL:count 	0
attr interpolationmode  none
attr source  packetReceivedFromUpper
attr title  "packets received from higher layer, count"
scalar scenarioPRJP1.node[56].lo0.lo 	rcvdPkFromHL:sum(packetBytes) 	0
attr interpolationmode  none
attr source  packetReceivedFromUpper
attr title  "packets received from higher layer, sum(packetBytes)"
scalar scenarioPRJP1.node[56].lo0.lo 	passedUpPk:count 	0
attr interpolationmode  none
attr source  packetSentToUpper
attr title  "packets passed to higher layer, count"
scalar scenarioPRJP1.node[56].lo0.lo 	passedUpPk:sum(packetBytes) 	0
attr interpolationmode  none
attr source  packetSentToUpper
attr title  "packets passed to higher layer, sum(packetBytes)"
scalar scenarioPRJP1.node[70].app 	"Total sent" 	5008
scalar scenarioPRJP1.node[70].app 	"Total received" 	1014
scalar scenarioPRJP1.node[70].app 	"Total deleted" 	164
scalar scenarioPRJP1.node[70].app 	dropPk:count 	164
attr interpolationmode  none
attr source  dropPk
attr title  "packets dropped, count"
scalar scenarioPRJP1.node[70].app 	dropPk:sum(packetBytes) 	83968
attr interpolationmode  none
attr source  dropPk
attr title  "packets dropped, sum(packetBytes)"
scalar scenarioPRJP1.node[70].app 	outOfOrderPk:count 	3
attr interpolationmode  none
attr source  outOfOrderPk
attr title  "packets received out of order, count"
scalar scenarioPRJP1.node[70].app 	outOfOrderPk:sum(packetBytes) 	1536
attr interpolationmode  none
attr source  outOfOrderPk
attr title  "packets received out of order, sum(packetBytes)"
scalar scenarioPRJP1.node[70].app 	rcvdPk:count 	1014
attr interpolationmode  none
attr source  rcvdPk
attr title  "packets received, count"
scalar scenarioPRJP1.node[70].app 	rcvdPk:sum(packetBytes) 	519168
attr interpolationmode  none
attr source  rcvdPk
attr title  "packets received, sum(packetBytes)"
statistic scenarioPRJP1.node[70].app 	endToEndDelay:histogram
field count 1014
field mean 4.4198561015582
field stddev 5.6731686206905
field sum 4481.73408698
field sqrsum 52411.864897271
field min 0.000890285025
field max 19.975209847303
attr interpolationmode  none
attr source  messageAge(rcvdPk)
attr title  "delay, histogram"
attr unit  s
bin	-INF	0
bin	-9.9590045736125	0
bin	-8.631018410032	0
bin	-7.3030322464516	0
bin	-5.9750460828711	0
bin	-4.6470599192906	0
bin	-3.3190737557102	0
bin	-1.9910875921297	0
bin	-0.66310142854923	457
bin	0.66488473503123	78
bin	1.9928708986117	71
bin	3.3208570621922	64
bin	4.6488432257726	40
bin	5.9768293893531	36
bin	7.3048155529336	33
bin	8.632801716514	32
bin	9.9607878800945	38
bin	11.288774043675	34
bin	12.616760207255	38
bin	13.944746370836	18
bin	15.272732534416	22
bin	16.600718697997	24
bin	17.928704861577	16
bin	19.256691025158	13
bin	20.584677188738	0
bin	21.912663352319	0
bin	23.240649515899	0
bin	24.56863567948	0
bin	25.89662184306	0
bin	27.224608006641	0
bin	28.552594170221	0
bin	29.880580333801	0
scalar scenarioPRJP1.node[70].app 	sentPk:count 	5008
attr interpolationmode  none
attr source  sentPk
attr title  "packets sent, count"
scalar scenarioPRJP1.node[70].app 	sentPk:sum(packetBytes) 	2564096
attr interpolationmode  none
attr source  sentPk
attr title  "packets sent, sum(packetBytes)"
scalar scenarioPRJP1.node[70].udp 	droppedPkBadChecksum:count 	0
attr interpolationmode  none
attr title  "packets dropped (checksum error), count"
scalar scenarioPRJP1.node[70].udp 	droppedPkWrongPort:count 	7
attr interpolationmode  none
attr title  "packets dropped (wrong port), count"
scalar scenarioPRJP1.node[70].udp 	passedUpPk:count 	1181
attr interpolationmode  none
attr title  "packets passed up, count"
scalar scenarioPRJP1.node[70].udp 	rcvdPk:count 	1188
attr interpolationmode  none
attr source  rcvdPk
attr title  "packets received, count"
scalar scenarioPRJP1.node[70].udp 	rcvdPk:sum(packetBytes) 	617760
attr interpolationmode  none
attr source  rcvdPk
attr title  "packets received, sum(packetBytes)"
scalar scenarioPRJP1.node[70].udp 	sentPk:count 	5008
attr interpolationmode  none
attr source  sentPk
attr title  "packets sent, count"
scalar scenarioPRJP1.node[70].udp 	sentPk:sum(packetBytes) 	2604160
attr interpolationmode  none
attr source  sentPk
attr title  "packets sent, sum(packetBytes)"
scalar scenarioPRJP1.node[70].networkLayer.arp 	failedARPResolution:count 	22
attr title  "ARP failed resolutions, count"
scalar scenarioPRJP1.node[70].networkLayer.arp 	completedARPResolution:count 	1409
attr title  "ARP completed resolutions, count"
scalar scenarioPRJP1.node[70].networkLayer.arp 	initiatedARPResolution:count 	166
attr title  "ARP initiated resolutions, count"
scalar scenarioPRJP1.node[70].networkLayer.arp 	sentReply:count 	101
attr title  "ARP replies sent, count"
scalar scenarioPRJP1.node[70].networkLayer.arp 	sentReq:count 	290
attr title  "ARP request sent, count"
scalar scenarioPRJP1.node[70].mobility 	startTime 	7.3
scalar scenarioPRJP1.node[70].mobility 	totalTime 	1892.7
scalar scenarioPRJP1.node[70].mobility 	stopTime 	1900
scalar scenarioPRJP1.node[70].mobility 	minSpeed 	2.4754452066794e-13
scalar scenarioPRJP1.node[70].mobility 	maxSpeed 	19.332037000397
scalar scenarioPRJP1.node[70].mobility 	totalDistance 	18737.859149266
scalar scenarioPRJP1.node[70].mobility 	totalCO2Emission 	5271.5130970165
scalar scenarioPRJP1.node[70].wlan.mgmt 	dataQueueLen:max 	55
attr interpolationmode  sample-hold
attr title  "data queue length, max"
scalar scenarioPRJP1.node[70].wlan.mgmt 	dataQueueLen:timeavg 	0.00014886503951287
attr interpolationmode  sample-hold
attr title  "data queue length, timeavg"
scalar scenarioPRJP1.node[70].wlan.mgmt 	dropPkByQueue:count 	0
attr interpolationmode  none
attr source  dropPkByQueue
attr title  "packets dropped by queue, count"
scalar scenarioPRJP1.node[70].wlan.mgmt 	dropPkByQueue:sum(packetBytes) 	0
attr interpolationmode  none
attr source  dropPkByQueue
attr title  "packets dropped by queue, sum(packetBytes)"
scalar scenarioPRJP1.node[70].wlan.mac 	"number of received packets" 	6860
scalar scenarioPRJP1.node[70].wlan.mac 	"number of collisions" 	107437
scalar scenarioPRJP1.node[70].wlan.mac 	"number of internal collisions" 	0
scalar scenarioPRJP1.node[70].wlan.mac 	"number of retry for AC 0" 	18939
scalar scenarioPRJP1.node[70].wlan.mac 	"number of retry for AC 1" 	1
scalar scenarioPRJP1.node[70].wlan.mac 	"number of retry for AC 2" 	0
scalar scenarioPRJP1.node[70].wlan.mac 	"number of retry for AC 3" 	0
scalar scenarioPRJP1.node[70].wlan.mac 	"sent and received bits" 	66416360
scalar scenarioPRJP1.node[70].wlan.mac 	"sent packet within AC 0" 	6626
scalar scenarioPRJP1.node[70].wlan.mac 	"sent packet within AC 1" 	18
scalar scenarioPRJP1.node[70].wlan.mac 	"sent packet within AC 2" 	0
scalar scenarioPRJP1.node[70].wlan.mac 	"sent packet within AC 3" 	0
scalar scenarioPRJP1.node[70].wlan.mac 	"sent in TXOP " 	0
scalar scenarioPRJP1.node[70].wlan.mac 	"sentWithoutRetry AC 0" 	4329
scalar scenarioPRJP1.node[70].wlan.mac 	"sentWithoutRetry AC 1" 	17
scalar scenarioPRJP1.node[70].wlan.mac 	"sentWithoutRetry AC 2" 	0
scalar scenarioPRJP1.node[70].wlan.mac 	"sentWithoutRetry AC 3" 	0
scalar scenarioPRJP1.node[70].wlan.mac 	"numGivenUp AC 0" 	2076
scalar scenarioPRJP1.node[70].wlan.mac 	"numGivenUp AC 1" 	0
scalar scenarioPRJP1.node[70].wlan.mac 	"numGivenUp AC 2" 	0
scalar scenarioPRJP1.node[70].wlan.mac 	"numGivenUp AC 3" 	0
scalar scenarioPRJP1.node[70].wlan.mac 	"numDropped AC 0" 	7
scalar scenarioPRJP1.node[70].wlan.mac 	"numDropped AC 1" 	0
scalar scenarioPRJP1.node[70].wlan.mac 	"numDropped AC 2" 	0
scalar scenarioPRJP1.node[70].wlan.mac 	"numDropped AC 3" 	0
scalar scenarioPRJP1.node[70].wlan.mac 	rcvdPkFromLL:count 	343504
attr interpolationmode  none
attr source  packetReceivedFromLower
attr title  "packets received from lower layer, count"
scalar scenarioPRJP1.node[70].wlan.mac 	rcvdPkFromLL:sum(packetBytes) 	113486866
attr interpolationmode  none
attr source  packetReceivedFromLower
attr title  "packets received from lower layer, sum(packetBytes)"
scalar scenarioPRJP1.node[70].wlan.mac 	sentDownPk:count 	62994
attr interpolationmode  none
attr source  packetSentToLower
attr title  "packets sent to lower layer, count"
scalar scenarioPRJP1.node[70].wlan.mac 	sentDownPk:sum(packetBytes) 	20317069
attr interpolationmode  none
attr source  packetSentToLower
attr title  "packets sent to lower layer, sum(packetBytes)"
scalar scenarioPRJP1.node[70].wlan.mac 	rcvdPkFromHL:count 	37201
attr interpolationmode  none
attr source  packetReceivedFromUpper
attr title  "packets received from higher layer, count"
scalar scenarioPRJP1.node[70].wlan.mac 	rcvdPkFromHL:sum(packetBytes) 	9486502
attr interpolationmode  none
attr source  packetReceivedFromUpper
attr title  "packets received from higher layer, sum(packetBytes)"
scalar scenarioPRJP1.node[70].wlan.mac 	passedUpPk:count 	115284
attr interpolationmode  none
attr source  packetSentToUpper
attr title  "packets passed to higher layer, count"
scalar scenarioPRJP1.node[70].wlan.mac 	passedUpPk:sum(packetBytes) 	21214787
attr interpolationmode  none
attr source  packetSentToUpper
attr title  "packets passed to higher layer, sum(packetBytes)"
statistic scenarioPRJP1.node[70].wlan.radio 	radioChannel:histogram
field count 1
field mean 3
field stddev -nan
field sum 3
field sqrsum 9
field min 3
field max 3
attr interpolationmode  sample-hold
attr source  radioChannelChanged
attr title  "Radio channel, histogram"
bin	-INF	0
bin	2	0
bin	3	1
bin	4	0
scalar scenarioPRJP1.node[70].wlan.radio 	transmissionState:count 	251976
attr interpolationmode  sample-hold
attr source  transmissionStateChanged
attr title  "Radio transmission state, count"
scalar scenarioPRJP1.node[70].wlan.radio 	receptionState:count 	1712941
attr interpolationmode  sample-hold
attr source  receptionStateChanged
attr title  "Radio reception state, count"
scalar scenarioPRJP1.node[70].wlan.radio 	radioMode:count 	125990
attr interpolationmode  sample-hold
attr source  radioModeChanged
attr title  "Radio mode, count"
statistic scenarioPRJP1.node[70].wlan.radio 	symbolErrorRate:histogram
field count 0
field mean -nan
field stddev -nan
field sum 0
field sqrsum 0
field min -nan
field max -nan
attr source  symbolErrorRate
attr title  "Symbol error rate, histogram"
bin	-INF	0
bin	-0.5	0
bin	-0.46666666666667	0
bin	-0.43333333333333	0
bin	-0.4	0
bin	-0.36666666666667	0
bin	-0.33333333333333	0
bin	-0.3	0
bin	-0.26666666666667	0
bin	-0.23333333333333	0
bin	-0.2	0
bin	-0.16666666666667	0
bin	-0.13333333333333	0
bin	-0.1	0
bin	-0.066666666666667	0
bin	-0.033333333333333	0
bin	0	0
bin	0.033333333333333	0
bin	0.066666666666667	0
bin	0.1	0
bin	0.13333333333333	0
bin	0.16666666666667	0
bin	0.2	0
bin	0.23333333333333	0
bin	0.26666666666667	0
bin	0.3	0
bin	0.33333333333333	0
bin	0.36666666666667	0
bin	0.4	0
bin	0.43333333333333	0
bin	0.46666666666667	0
bin	0.5	0
statistic scenarioPRJP1.node[70].wlan.radio 	bitErrorRate:histogram
field count 0
field mean -nan
field stddev -nan
field sum 0
field sqrsum 0
field min -nan
field max -nan
attr source  bitErrorRate
attr title  "Bit error rate, histogram"
bin	-INF	0
bin	-0.5	0
bin	-0.46666666666667	0
bin	-0.43333333333333	0
bin	-0.4	0
bin	-0.36666666666667	0
bin	-0.33333333333333	0
bin	-0.3	0
bin	-0.26666666666667	0
bin	-0.23333333333333	0
bin	-0.2	0
bin	-0.16666666666667	0
bin	-0.13333333333333	0
bin	-0.1	0
bin	-0.066666666666667	0
bin	-0.033333333333333	0
bin	0	0
bin	0.033333333333333	0
bin	0.066666666666667	0
bin	0.1	0
bin	0.13333333333333	0
bin	0.16666666666667	0
bin	0.2	0
bin	0.23333333333333	0
bin	0.26666666666667	0
bin	0.3	0
bin	0.33333333333333	0
bin	0.36666666666667	0
bin	0.4	0
bin	0.43333333333333	0
bin	0.46666666666667	0
bin	0.5	0
statistic scenarioPRJP1.node[70].wlan.radio 	packetErrorRate:histogram
field count 343504
field mean 0.28398301773995
field stddev 0.43935084836982
field sum 97549.302525743
field sqrsum 94008.443592577
field min 0
field max 1
attr source  packetErrorRate
attr title  "Packet error rate, histogram"
bin	-INF	93605
bin	-2.4617481386713e-09	0
bin	-2.1335150535151e-09	0
bin	-1.8052819683589e-09	0
bin	-1.4770488832028e-09	0
bin	-1.1488157980466e-09	0
bin	-8.2058271289043e-10	0
bin	-4.9234962773426e-10	0
bin	-1.6411654257809e-10	170912
bin	1.6411654257809e-10	2130
bin	4.9234962773426e-10	1004
bin	8.2058271289043e-10	708
bin	1.1488157980466e-09	528
bin	1.4770488832028e-09	437
bin	1.8052819683589e-09	360
bin	2.1335150535151e-09	238
bin	2.4617481386713e-09	277
bin	2.7899812238275e-09	224
bin	3.1182143089836e-09	233
bin	3.4464473941398e-09	181
bin	3.774680479296e-09	179
bin	4.1029135644521e-09	155
bin	4.4311466496083e-09	174
bin	4.7593797347645e-09	143
bin	5.0876128199206e-09	144
bin	5.4158459050768e-09	119
bin	5.744078990233e-09	136
bin	6.0723120753892e-09	128
bin	6.4005451605453e-09	105
bin	6.7287782457015e-09	117
bin	7.0570113308577e-09	87
bin	7.3852444160138e-09	71180
statistic scenarioPRJP1.node[70].wlan.radio 	minSNIR:histogram
field count 343504
field mean 4365.4509411654
field stddev 86206.79172677
field sum 1499549860.0941
field sqrsum 2.55932686401e+15
field min 0.00010785951636389
field max 3257639.8773224
attr source  minSNIR
attr title  "Min SNIR, histogram"
bin	-INF	0
bin	-268672.18365525	0
bin	-232848.55687697	0
bin	-197024.93009868	0
bin	-161201.3033204	0
bin	-125377.67654211	0
bin	-89554.049763824	0
bin	-53730.422985538	0
bin	-17906.796207251	338377
bin	17916.830571035	2925
bin	53740.457349321	753
bin	89564.084127607	365
bin	125387.71090589	120
bin	161211.33768418	130
bin	197034.96446247	50
bin	232858.59124075	28
bin	268682.21801904	54
bin	304505.84479732	37
bin	340329.47157561	16
bin	376153.0983539	4
bin	411976.72513218	14
bin	447800.35191047	9
bin	483623.97868875	14
bin	519447.60546704	12
bin	555271.23224533	128
bin	591094.85902361	21
bin	626918.4858019	4
bin	662742.11258018	11
bin	698565.73935847	73
bin	734389.36613676	3
bin	770212.99291504	5
bin	806036.61969333	351
scalar scenarioPRJP1.node[70].lo0.lo 	droppedPkBitError:count 	0
attr interpolationmode  none
attr source  dropPkBitError
attr title  "packets dropped/bit error, count"
scalar scenarioPRJP1.node[70].lo0.lo 	droppedPkBitError:sum(packetBytes) 	0
attr interpolationmode  none
attr source  dropPkBitError
attr title  "packets dropped/bit error, sum(packetBytes)"
scalar scenarioPRJP1.node[70].lo0.lo 	rcvdPkFromHL:count 	0
attr interpolationmode  none
attr source  packetReceivedFromUpper
attr title  "packets received from higher layer, count"
scalar scenarioPRJP1.node[70].lo0.lo 	rcvdPkFromHL:sum(packetBytes) 	0
attr interpolationmode  none
attr source  packetReceivedFromUpper
attr title  "packets received from higher layer, sum(packetBytes)"
scalar scenarioPRJP1.node[70].lo0.lo 	passedUpPk:count 	0
attr interpolationmode  none
attr source  packetSentToUpper
attr title  "packets passed to higher layer, count"
scalar scenarioPRJP1.node[70].lo0.lo 	passedUpPk:sum(packetBytes) 	0
attr interpolationmode  none
attr source  packetSentToUpper
attr title  "packets passed to higher layer, sum(packetBytes)"
