version 2
run DYMOUM-FS-75-7-20150613-15:05:37-23515
attr configname DYMOUM-FS-75
attr datetime 20150613-15:05:37
attr experiment DYMOUM-FS-75
attr inifile omnetpp.ini
attr iterationvars ""
attr iterationvars2 $repetition=7
attr measurement ""
attr network Prj_Part1_propag.scenarioPRJP1
attr processid 23515
attr repetition 7
attr replication #7
attr resultdir results
attr runnumber 7
attr seedset 7

scalar scenarioPRJP1.node[70].app 	"Total sent" 	4890
scalar scenarioPRJP1.node[70].app 	"Total received" 	1116
scalar scenarioPRJP1.node[70].app 	"Total deleted" 	125
scalar scenarioPRJP1.node[70].app 	dropPk:count 	125
attr interpolationmode  none
attr source  dropPk
attr title  "packets dropped, count"
scalar scenarioPRJP1.node[70].app 	dropPk:sum(packetBytes) 	64000
attr interpolationmode  none
attr source  dropPk
attr title  "packets dropped, sum(packetBytes)"
scalar scenarioPRJP1.node[70].app 	outOfOrderPk:count 	0
attr interpolationmode  none
attr source  outOfOrderPk
attr title  "packets received out of order, count"
scalar scenarioPRJP1.node[70].app 	outOfOrderPk:sum(packetBytes) 	0
attr interpolationmode  none
attr source  outOfOrderPk
attr title  "packets received out of order, sum(packetBytes)"
scalar scenarioPRJP1.node[70].app 	rcvdPk:count 	1116
attr interpolationmode  none
attr source  rcvdPk
attr title  "packets received, count"
scalar scenarioPRJP1.node[70].app 	rcvdPk:sum(packetBytes) 	571392
attr interpolationmode  none
attr source  rcvdPk
attr title  "packets received, sum(packetBytes)"
statistic scenarioPRJP1.node[70].app 	endToEndDelay:histogram
field count 1116
field mean 4.0148549132975
field stddev 5.28553910979
field sum 4480.57808324
field sqrsum 49138.540836357
field min 0.000891022707
field max 19.956447788936
attr interpolationmode  none
attr source  messageAge(rcvdPk)
attr title  "delay, histogram"
attr unit  s
bin	-INF	0
bin	-9.1642500129325	0
bin	-7.9422311990208	0
bin	-6.7202123851092	0
bin	-5.4981935711975	0
bin	-4.2761747572858	0
bin	-3.0541559433742	0
bin	-1.8321371294625	0
bin	-0.61011831555084	500
bin	0.61190049836083	101
bin	1.8339193122725	78
bin	3.0559381261842	56
bin	4.2779569400958	48
bin	5.4999757540075	45
bin	6.7219945679192	48
bin	7.9440133818308	40
bin	9.1660321957425	41
bin	10.388051009654	31
bin	11.610069823566	27
bin	12.832088637478	18
bin	14.054107451389	19
bin	15.276126265301	12
bin	16.498145079212	25
bin	17.720163893124	10
bin	18.942182707036	17
bin	20.164201520948	0
bin	21.386220334859	0
bin	22.608239148771	0
bin	23.830257962682	0
bin	25.052276776594	0
bin	26.274295590506	0
bin	27.496314404418	0
scalar scenarioPRJP1.node[70].app 	sentPk:count 	4890
attr interpolationmode  none
attr source  sentPk
attr title  "packets sent, count"
scalar scenarioPRJP1.node[70].app 	sentPk:sum(packetBytes) 	2503680
attr interpolationmode  none
attr source  sentPk
attr title  "packets sent, sum(packetBytes)"
scalar scenarioPRJP1.node[70].udp 	droppedPkBadChecksum:count 	0
attr interpolationmode  none
attr title  "packets dropped (checksum error), count"
scalar scenarioPRJP1.node[70].udp 	droppedPkWrongPort:count 	0
attr interpolationmode  none
attr title  "packets dropped (wrong port), count"
scalar scenarioPRJP1.node[70].udp 	passedUpPk:count 	1241
attr interpolationmode  none
attr title  "packets passed up, count"
scalar scenarioPRJP1.node[70].udp 	rcvdPk:count 	1241
attr interpolationmode  none
attr source  rcvdPk
attr title  "packets received, count"
scalar scenarioPRJP1.node[70].udp 	rcvdPk:sum(packetBytes) 	645320
attr interpolationmode  none
attr source  rcvdPk
attr title  "packets received, sum(packetBytes)"
scalar scenarioPRJP1.node[70].udp 	sentPk:count 	4890
attr interpolationmode  none
attr source  sentPk
attr title  "packets sent, count"
scalar scenarioPRJP1.node[70].udp 	sentPk:sum(packetBytes) 	2542800
attr interpolationmode  none
attr source  sentPk
attr title  "packets sent, sum(packetBytes)"
scalar scenarioPRJP1.node[70].networkLayer.arp 	failedARPResolution:count 	25
attr title  "ARP failed resolutions, count"
scalar scenarioPRJP1.node[70].networkLayer.arp 	completedARPResolution:count 	1381
attr title  "ARP completed resolutions, count"
scalar scenarioPRJP1.node[70].networkLayer.arp 	initiatedARPResolution:count 	171
attr title  "ARP initiated resolutions, count"
scalar scenarioPRJP1.node[70].networkLayer.arp 	sentReply:count 	97
attr title  "ARP replies sent, count"
scalar scenarioPRJP1.node[70].networkLayer.arp 	sentReq:count 	305
attr title  "ARP request sent, count"
scalar scenarioPRJP1.node[70].manetrouting 	"simulated time" 	1755.8
scalar scenarioPRJP1.node[70].manetrouting 	"Dymo totalSend " 	4716301
scalar scenarioPRJP1.node[70].manetrouting 	"Dymo Rreq send" 	2548874
scalar scenarioPRJP1.node[70].manetrouting 	"Dymo Rreq rec" 	2068415
scalar scenarioPRJP1.node[70].manetrouting 	"Dymo Rrep send" 	12866
scalar scenarioPRJP1.node[70].manetrouting 	"Dymo Rrep rec" 	8329
scalar scenarioPRJP1.node[70].manetrouting 	"Dymo Rerr send" 	22655
scalar scenarioPRJP1.node[70].manetrouting 	"Dymo Rerr rec" 	71593
scalar scenarioPRJP1.node[70].mobility 	startTime 	7.4
scalar scenarioPRJP1.node[70].mobility 	totalTime 	1748.3
scalar scenarioPRJP1.node[70].mobility 	stopTime 	1755.8
scalar scenarioPRJP1.node[70].mobility 	minSpeed 	2.4754904892735e-13
scalar scenarioPRJP1.node[70].mobility 	maxSpeed 	20.957583451687
scalar scenarioPRJP1.node[70].mobility 	totalDistance 	18226.672808893
scalar scenarioPRJP1.node[70].mobility 	totalCO2Emission 	5259.37227571
scalar scenarioPRJP1.node[70].wlan.mgmt 	dataQueueLen:max 	74
attr interpolationmode  sample-hold
attr title  "data queue length, max"
scalar scenarioPRJP1.node[70].wlan.mgmt 	dataQueueLen:timeavg 	0.0050707855280033
attr interpolationmode  sample-hold
attr title  "data queue length, timeavg"
scalar scenarioPRJP1.node[70].wlan.mgmt 	dropPkByQueue:count 	0
attr interpolationmode  none
attr source  dropPkByQueue
attr title  "packets dropped by queue, count"
scalar scenarioPRJP1.node[70].wlan.mgmt 	dropPkByQueue:sum(packetBytes) 	0
attr interpolationmode  none
attr source  dropPkByQueue
attr title  "packets dropped by queue, sum(packetBytes)"
scalar scenarioPRJP1.node[70].wlan.mac 	"number of received packets" 	7570
scalar scenarioPRJP1.node[70].wlan.mac 	"number of collisions" 	135067
scalar scenarioPRJP1.node[70].wlan.mac 	"number of internal collisions" 	0
scalar scenarioPRJP1.node[70].wlan.mac 	"number of retry for AC 0" 	17942
scalar scenarioPRJP1.node[70].wlan.mac 	"number of retry for AC 1" 	1
scalar scenarioPRJP1.node[70].wlan.mac 	"number of retry for AC 2" 	0
scalar scenarioPRJP1.node[70].wlan.mac 	"number of retry for AC 3" 	0
scalar scenarioPRJP1.node[70].wlan.mac 	"sent and received bits" 	69501608
scalar scenarioPRJP1.node[70].wlan.mac 	"sent packet within AC 0" 	7447
scalar scenarioPRJP1.node[70].wlan.mac 	"sent packet within AC 1" 	3
scalar scenarioPRJP1.node[70].wlan.mac 	"sent packet within AC 2" 	0
scalar scenarioPRJP1.node[70].wlan.mac 	"sent packet within AC 3" 	0
scalar scenarioPRJP1.node[70].wlan.mac 	"sent in TXOP " 	0
scalar scenarioPRJP1.node[70].wlan.mac 	"sentWithoutRetry AC 0" 	4971
scalar scenarioPRJP1.node[70].wlan.mac 	"sentWithoutRetry AC 1" 	2
scalar scenarioPRJP1.node[70].wlan.mac 	"sentWithoutRetry AC 2" 	0
scalar scenarioPRJP1.node[70].wlan.mac 	"sentWithoutRetry AC 3" 	0
scalar scenarioPRJP1.node[70].wlan.mac 	"numGivenUp AC 0" 	1834
scalar scenarioPRJP1.node[70].wlan.mac 	"numGivenUp AC 1" 	0
scalar scenarioPRJP1.node[70].wlan.mac 	"numGivenUp AC 2" 	0
scalar scenarioPRJP1.node[70].wlan.mac 	"numGivenUp AC 3" 	0
scalar scenarioPRJP1.node[70].wlan.mac 	"numDropped AC 0" 	69
scalar scenarioPRJP1.node[70].wlan.mac 	"numDropped AC 1" 	0
scalar scenarioPRJP1.node[70].wlan.mac 	"numDropped AC 2" 	0
scalar scenarioPRJP1.node[70].wlan.mac 	"numDropped AC 3" 	0
scalar scenarioPRJP1.node[70].wlan.mac 	rcvdPkFromLL:count 	387800
attr interpolationmode  none
attr source  packetReceivedFromLower
attr title  "packets received from lower layer, count"
scalar scenarioPRJP1.node[70].wlan.mac 	rcvdPkFromLL:sum(packetBytes) 	130761340
attr interpolationmode  none
attr source  packetReceivedFromLower
attr title  "packets received from lower layer, sum(packetBytes)"
scalar scenarioPRJP1.node[70].wlan.mac 	sentDownPk:count 	62635
attr interpolationmode  none
attr source  packetSentToLower
attr title  "packets sent to lower layer, count"
scalar scenarioPRJP1.node[70].wlan.mac 	sentDownPk:sum(packetBytes) 	20022528
attr interpolationmode  none
attr source  packetSentToLower
attr title  "packets sent to lower layer, sum(packetBytes)"
scalar scenarioPRJP1.node[70].wlan.mac 	rcvdPkFromHL:count 	37191
attr interpolationmode  none
attr source  packetReceivedFromUpper
attr title  "packets received from higher layer, count"
scalar scenarioPRJP1.node[70].wlan.mac 	rcvdPkFromHL:sum(packetBytes) 	9766535
attr interpolationmode  none
attr source  packetReceivedFromUpper
attr title  "packets received from higher layer, sum(packetBytes)"
scalar scenarioPRJP1.node[70].wlan.mac 	passedUpPk:count 	116617
attr interpolationmode  none
attr source  packetSentToUpper
attr title  "packets passed to higher layer, count"
scalar scenarioPRJP1.node[70].wlan.mac 	passedUpPk:sum(packetBytes) 	21779436
attr interpolationmode  none
attr source  packetSentToUpper
attr title  "packets passed to higher layer, sum(packetBytes)"
statistic scenarioPRJP1.node[70].wlan.radio 	radioChannel:histogram
field count 1
field mean 3
field stddev -nan
field sum 3
field sqrsum 9
field min 3
field max 3
attr interpolationmode  sample-hold
attr source  radioChannelChanged
attr title  "Radio channel, histogram"
bin	-INF	0
bin	2	0
bin	3	1
bin	4	0
scalar scenarioPRJP1.node[70].wlan.radio 	transmissionState:count 	250540
attr interpolationmode  sample-hold
attr source  transmissionStateChanged
attr title  "Radio transmission state, count"
scalar scenarioPRJP1.node[70].wlan.radio 	receptionState:count 	1865308
attr interpolationmode  sample-hold
attr source  receptionStateChanged
attr title  "Radio reception state, count"
scalar scenarioPRJP1.node[70].wlan.radio 	radioMode:count 	125272
attr interpolationmode  sample-hold
attr source  radioModeChanged
attr title  "Radio mode, count"
statistic scenarioPRJP1.node[70].wlan.radio 	symbolErrorRate:histogram
field count 0
field mean -nan
field stddev -nan
field sum 0
field sqrsum 0
field min -nan
field max -nan
attr source  symbolErrorRate
attr title  "Symbol error rate, histogram"
bin	-INF	0
bin	-0.5	0
bin	-0.46666666666667	0
bin	-0.43333333333333	0
bin	-0.4	0
bin	-0.36666666666667	0
bin	-0.33333333333333	0
bin	-0.3	0
bin	-0.26666666666667	0
bin	-0.23333333333333	0
bin	-0.2	0
bin	-0.16666666666667	0
bin	-0.13333333333333	0
bin	-0.1	0
bin	-0.066666666666667	0
bin	-0.033333333333333	0
bin	0	0
bin	0.033333333333333	0
bin	0.066666666666667	0
bin	0.1	0
bin	0.13333333333333	0
bin	0.16666666666667	0
bin	0.2	0
bin	0.23333333333333	0
bin	0.26666666666667	0
bin	0.3	0
bin	0.33333333333333	0
bin	0.36666666666667	0
bin	0.4	0
bin	0.43333333333333	0
bin	0.46666666666667	0
bin	0.5	0
statistic scenarioPRJP1.node[70].wlan.radio 	bitErrorRate:histogram
field count 0
field mean -nan
field stddev -nan
field sum 0
field sqrsum 0
field min -nan
field max -nan
attr source  bitErrorRate
attr title  "Bit error rate, histogram"
bin	-INF	0
bin	-0.5	0
bin	-0.46666666666667	0
bin	-0.43333333333333	0
bin	-0.4	0
bin	-0.36666666666667	0
bin	-0.33333333333333	0
bin	-0.3	0
bin	-0.26666666666667	0
bin	-0.23333333333333	0
bin	-0.2	0
bin	-0.16666666666667	0
bin	-0.13333333333333	0
bin	-0.1	0
bin	-0.066666666666667	0
bin	-0.033333333333333	0
bin	0	0
bin	0.033333333333333	0
bin	0.066666666666667	0
bin	0.1	0
bin	0.13333333333333	0
bin	0.16666666666667	0
bin	0.2	0
bin	0.23333333333333	0
bin	0.26666666666667	0
bin	0.3	0
bin	0.33333333333333	0
bin	0.36666666666667	0
bin	0.4	0
bin	0.43333333333333	0
bin	0.46666666666667	0
bin	0.5	0
statistic scenarioPRJP1.node[70].wlan.radio 	packetErrorRate:histogram
field count 387800
field mean 0.31854787018785
field stddev 0.45489397463212
field sum 123532.86405885
field sqrsum 119597.80703476
field min 0
field max 1
attr source  packetErrorRate
attr title  "Packet error rate, histogram"
bin	-INF	130378
bin	-5.5223825512485e-10	0
bin	-4.7860648777487e-10	0
bin	-4.0497472042489e-10	0
bin	-3.3134295307491e-10	0
bin	-2.5771118572493e-10	0
bin	-1.8407941837495e-10	0
bin	-1.1044765102497e-10	0
bin	-3.681588367499e-11	178400
bin	3.681588367499e-11	2280
bin	1.1044765102497e-10	1059
bin	1.8407941837495e-10	746
bin	2.5771118572493e-10	518
bin	3.3134295307491e-10	485
bin	4.0497472042489e-10	345
bin	4.7860648777487e-10	310
bin	5.5223825512485e-10	255
bin	6.2587002247483e-10	246
bin	6.9950178982481e-10	243
bin	7.7313355717479e-10	215
bin	8.4676532452477e-10	170
bin	9.2039709187475e-10	186
bin	9.9402885922473e-10	131
bin	1.0676606265747e-09	141
bin	1.1412923939247e-09	137
bin	1.2149241612747e-09	124
bin	1.2885559286246e-09	121
bin	1.3621876959746e-09	144
bin	1.4358194633246e-09	105
bin	1.5094512306746e-09	120
bin	1.5830829980246e-09	118
bin	1.6567147653745e-09	70823
statistic scenarioPRJP1.node[70].wlan.radio 	minSNIR:histogram
field count 387800
field mean 4311.6368564219
field stddev 88863.286273285
field sum 1672052772.9204
field sqrsum 3.0695353060961e+15
field min 0.00010626222646699
field max 3012958.8769377
attr source  minSNIR
attr title  "Min SNIR, histogram"
bin	-INF	0
bin	-823691.94277016	0
bin	-713865.64475744	0
bin	-604039.34674473	0
bin	-494213.04873202	0
bin	-384386.7507193	0
bin	-274560.45270659	0
bin	-164734.15469388	0
bin	-54907.856681162	385121
bin	54918.441331552	1654
bin	164744.73934427	256
bin	274571.03735698	98
bin	384397.33536969	68
bin	494223.63338241	44
bin	604049.93139512	143
bin	713876.22940783	14
bin	823702.52742055	11
bin	933528.82543326	6
bin	1043355.123446	3
bin	1153181.4214587	2
bin	1263007.7194714	5
bin	1372834.0174841	6
bin	1482660.3154968	1
bin	1592486.6135095	4
bin	1702312.9115223	3
bin	1812139.209535	33
bin	1921965.5075477	6
bin	2031791.8055604	2
bin	2141618.1035731	4
bin	2251444.4015858	4
bin	2361270.6995985	7
bin	2471096.9976113	305
scalar scenarioPRJP1.node[70].lo0.lo 	droppedPkBitError:count 	0
attr interpolationmode  none
attr source  dropPkBitError
attr title  "packets dropped/bit error, count"
scalar scenarioPRJP1.node[70].lo0.lo 	droppedPkBitError:sum(packetBytes) 	0
attr interpolationmode  none
attr source  dropPkBitError
attr title  "packets dropped/bit error, sum(packetBytes)"
scalar scenarioPRJP1.node[70].lo0.lo 	rcvdPkFromHL:count 	1
attr interpolationmode  none
attr source  packetReceivedFromUpper
attr title  "packets received from higher layer, count"
scalar scenarioPRJP1.node[70].lo0.lo 	rcvdPkFromHL:sum(packetBytes) 	56
attr interpolationmode  none
attr source  packetReceivedFromUpper
attr title  "packets received from higher layer, sum(packetBytes)"
scalar scenarioPRJP1.node[70].lo0.lo 	passedUpPk:count 	1
attr interpolationmode  none
attr source  packetSentToUpper
attr title  "packets passed to higher layer, count"
scalar scenarioPRJP1.node[70].lo0.lo 	passedUpPk:sum(packetBytes) 	56
attr interpolationmode  none
attr source  packetSentToUpper
attr title  "packets passed to higher layer, sum(packetBytes)"
scalar scenarioPRJP1.node[35].app 	"Total sent" 	5031
scalar scenarioPRJP1.node[35].app 	"Total received" 	1005
scalar scenarioPRJP1.node[35].app 	"Total deleted" 	136
scalar scenarioPRJP1.node[35].app 	dropPk:count 	136
attr interpolationmode  none
attr source  dropPk
attr title  "packets dropped, count"
scalar scenarioPRJP1.node[35].app 	dropPk:sum(packetBytes) 	69632
attr interpolationmode  none
attr source  dropPk
attr title  "packets dropped, sum(packetBytes)"
scalar scenarioPRJP1.node[35].app 	outOfOrderPk:count 	0
attr interpolationmode  none
attr source  outOfOrderPk
attr title  "packets received out of order, count"
scalar scenarioPRJP1.node[35].app 	outOfOrderPk:sum(packetBytes) 	0
attr interpolationmode  none
attr source  outOfOrderPk
attr title  "packets received out of order, sum(packetBytes)"
scalar scenarioPRJP1.node[35].app 	rcvdPk:count 	1005
attr interpolationmode  none
attr source  rcvdPk
attr title  "packets received, count"
scalar scenarioPRJP1.node[35].app 	rcvdPk:sum(packetBytes) 	514560
attr interpolationmode  none
attr source  rcvdPk
attr title  "packets received, sum(packetBytes)"
statistic scenarioPRJP1.node[35].app 	endToEndDelay:histogram
field count 1005
field mean 4.206804262336
field stddev 5.5330477665694
field sum 4227.8382836477
field sqrsum 48522.764169604
field min 0.000891011007
field max 19.895270432828
attr interpolationmode  none
attr source  messageAge(rcvdPk)
attr title  "delay, histogram"
attr unit  s
bin	-INF	0
bin	-9.833051265328	0
bin	-8.5218589618167	0
bin	-7.2106666583053	0
bin	-5.899474354794	0
bin	-4.5882820512827	0
bin	-3.2770897477713	0
bin	-1.96589744426	0
bin	-0.65470514074867	453
bin	0.65648716276267	107
bin	1.967679466274	59
bin	3.2788717697853	45
bin	4.5900640732967	39
bin	5.901256376808	45
bin	7.2124486803193	49
bin	8.5236409838307	34
bin	9.834833287342	26
bin	11.146025590853	26
bin	12.457217894365	22
bin	13.768410197876	24
bin	15.079602501387	20
bin	16.390794804899	22
bin	17.70198710841	22
bin	19.013179411921	12
bin	20.324371715433	0
bin	21.635564018944	0
bin	22.946756322455	0
bin	24.257948625967	0
bin	25.569140929478	0
bin	26.880333232989	0
bin	28.191525536501	0
bin	29.502717840012	0
scalar scenarioPRJP1.node[35].app 	sentPk:count 	5031
attr interpolationmode  none
attr source  sentPk
attr title  "packets sent, count"
scalar scenarioPRJP1.node[35].app 	sentPk:sum(packetBytes) 	2575872
attr interpolationmode  none
attr source  sentPk
attr title  "packets sent, sum(packetBytes)"
scalar scenarioPRJP1.node[35].udp 	droppedPkBadChecksum:count 	0
attr interpolationmode  none
attr title  "packets dropped (checksum error), count"
scalar scenarioPRJP1.node[35].udp 	droppedPkWrongPort:count 	0
attr interpolationmode  none
attr title  "packets dropped (wrong port), count"
scalar scenarioPRJP1.node[35].udp 	passedUpPk:count 	1141
attr interpolationmode  none
attr title  "packets passed up, count"
scalar scenarioPRJP1.node[35].udp 	rcvdPk:count 	1141
attr interpolationmode  none
attr source  rcvdPk
attr title  "packets received, count"
scalar scenarioPRJP1.node[35].udp 	rcvdPk:sum(packetBytes) 	593320
attr interpolationmode  none
attr source  rcvdPk
attr title  "packets received, sum(packetBytes)"
scalar scenarioPRJP1.node[35].udp 	sentPk:count 	5031
attr interpolationmode  none
attr source  sentPk
attr title  "packets sent, count"
scalar scenarioPRJP1.node[35].udp 	sentPk:sum(packetBytes) 	2616120
attr interpolationmode  none
attr source  sentPk
attr title  "packets sent, sum(packetBytes)"
scalar scenarioPRJP1.node[35].networkLayer.arp 	failedARPResolution:count 	25
attr title  "ARP failed resolutions, count"
scalar scenarioPRJP1.node[35].networkLayer.arp 	completedARPResolution:count 	1208
attr title  "ARP completed resolutions, count"
scalar scenarioPRJP1.node[35].networkLayer.arp 	initiatedARPResolution:count 	176
attr title  "ARP initiated resolutions, count"
scalar scenarioPRJP1.node[35].networkLayer.arp 	sentReply:count 	112
attr title  "ARP replies sent, count"
scalar scenarioPRJP1.node[35].networkLayer.arp 	sentReq:count 	317
attr title  "ARP request sent, count"
scalar scenarioPRJP1.node[35].mobility 	startTime 	2.5
scalar scenarioPRJP1.node[35].mobility 	totalTime 	1803.7
scalar scenarioPRJP1.node[35].mobility 	stopTime 	1806.3
scalar scenarioPRJP1.node[35].mobility 	minSpeed 	2.4756706514981e-13
scalar scenarioPRJP1.node[35].mobility 	maxSpeed 	19.722043673968
scalar scenarioPRJP1.node[35].mobility 	totalDistance 	21631.858525631
scalar scenarioPRJP1.node[35].mobility 	totalCO2Emission 	5604.8503833063
scalar scenarioPRJP1.node[35].wlan.mgmt 	dataQueueLen:max 	31
attr interpolationmode  sample-hold
attr title  "data queue length, max"
scalar scenarioPRJP1.node[35].wlan.mgmt 	dataQueueLen:timeavg 	0
attr interpolationmode  sample-hold
attr title  "data queue length, timeavg"
scalar scenarioPRJP1.node[35].wlan.mgmt 	dropPkByQueue:count 	0
attr interpolationmode  none
attr source  dropPkByQueue
attr title  "packets dropped by queue, count"
scalar scenarioPRJP1.node[35].wlan.mgmt 	dropPkByQueue:sum(packetBytes) 	0
attr interpolationmode  none
attr source  dropPkByQueue
attr title  "packets dropped by queue, sum(packetBytes)"
scalar scenarioPRJP1.node[35].wlan.mac 	"number of received packets" 	7024
scalar scenarioPRJP1.node[35].wlan.mac 	"number of collisions" 	115185
scalar scenarioPRJP1.node[35].wlan.mac 	"number of internal collisions" 	0
scalar scenarioPRJP1.node[35].wlan.mac 	"number of retry for AC 0" 	18576
scalar scenarioPRJP1.node[35].wlan.mac 	"number of retry for AC 1" 	0
scalar scenarioPRJP1.node[35].wlan.mac 	"number of retry for AC 2" 	0
scalar scenarioPRJP1.node[35].wlan.mac 	"number of retry for AC 3" 	0
scalar scenarioPRJP1.node[35].wlan.mac 	"sent and received bits" 	65430088
scalar scenarioPRJP1.node[35].wlan.mac 	"sent packet within AC 0" 	6671
scalar scenarioPRJP1.node[35].wlan.mac 	"sent packet within AC 1" 	2
scalar scenarioPRJP1.node[35].wlan.mac 	"sent packet within AC 2" 	0
scalar scenarioPRJP1.node[35].wlan.mac 	"sent packet within AC 3" 	0
scalar scenarioPRJP1.node[35].wlan.mac 	"sent in TXOP " 	0
scalar scenarioPRJP1.node[35].wlan.mac 	"sentWithoutRetry AC 0" 	4449
scalar scenarioPRJP1.node[35].wlan.mac 	"sentWithoutRetry AC 1" 	2
scalar scenarioPRJP1.node[35].wlan.mac 	"sentWithoutRetry AC 2" 	0
scalar scenarioPRJP1.node[35].wlan.mac 	"sentWithoutRetry AC 3" 	0
scalar scenarioPRJP1.node[35].wlan.mac 	"numGivenUp AC 0" 	2036
scalar scenarioPRJP1.node[35].wlan.mac 	"numGivenUp AC 1" 	0
scalar scenarioPRJP1.node[35].wlan.mac 	"numGivenUp AC 2" 	0
scalar scenarioPRJP1.node[35].wlan.mac 	"numGivenUp AC 3" 	0
scalar scenarioPRJP1.node[35].wlan.mac 	"numDropped AC 0" 	0
scalar scenarioPRJP1.node[35].wlan.mac 	"numDropped AC 1" 	0
scalar scenarioPRJP1.node[35].wlan.mac 	"numDropped AC 2" 	0
scalar scenarioPRJP1.node[35].wlan.mac 	"numDropped AC 3" 	0
scalar scenarioPRJP1.node[35].wlan.mac 	rcvdPkFromLL:count 	327821
attr interpolationmode  none
attr source  packetReceivedFromLower
attr title  "packets received from lower layer, count"
scalar scenarioPRJP1.node[35].wlan.mac 	rcvdPkFromLL:sum(packetBytes) 	108843505
attr interpolationmode  none
attr source  packetReceivedFromLower
attr title  "packets received from lower layer, sum(packetBytes)"
scalar scenarioPRJP1.node[35].wlan.mac 	sentDownPk:count 	61446
attr interpolationmode  none
attr source  packetSentToLower
attr title  "packets sent to lower layer, count"
scalar scenarioPRJP1.node[35].wlan.mac 	sentDownPk:sum(packetBytes) 	19929921
attr interpolationmode  none
attr source  packetSentToLower
attr title  "packets sent to lower layer, sum(packetBytes)"
scalar scenarioPRJP1.node[35].wlan.mac 	rcvdPkFromHL:count 	35846
attr interpolationmode  none
attr source  packetReceivedFromUpper
attr title  "packets received from higher layer, count"
scalar scenarioPRJP1.node[35].wlan.mac 	rcvdPkFromHL:sum(packetBytes) 	9332179
attr interpolationmode  none
attr source  packetReceivedFromUpper
attr title  "packets received from higher layer, sum(packetBytes)"
scalar scenarioPRJP1.node[35].wlan.mac 	passedUpPk:count 	102013
attr interpolationmode  none
attr source  packetSentToUpper
attr title  "packets passed to higher layer, count"
scalar scenarioPRJP1.node[35].wlan.mac 	passedUpPk:sum(packetBytes) 	19453560
attr interpolationmode  none
attr source  packetSentToUpper
attr title  "packets passed to higher layer, sum(packetBytes)"
statistic scenarioPRJP1.node[35].wlan.radio 	radioChannel:histogram
field count 1
field mean 3
field stddev -nan
field sum 3
field sqrsum 9
field min 3
field max 3
attr interpolationmode  sample-hold
attr source  radioChannelChanged
attr title  "Radio channel, histogram"
bin	-INF	0
bin	2	0
bin	3	1
bin	4	0
scalar scenarioPRJP1.node[35].wlan.radio 	transmissionState:count 	245784
attr interpolationmode  sample-hold
attr source  transmissionStateChanged
attr title  "Radio transmission state, count"
scalar scenarioPRJP1.node[35].wlan.radio 	receptionState:count 	1652427
attr interpolationmode  sample-hold
attr source  receptionStateChanged
attr title  "Radio reception state, count"
scalar scenarioPRJP1.node[35].wlan.radio 	radioMode:count 	122894
attr interpolationmode  sample-hold
attr source  radioModeChanged
attr title  "Radio mode, count"
statistic scenarioPRJP1.node[35].wlan.radio 	symbolErrorRate:histogram
field count 0
field mean -nan
field stddev -nan
field sum 0
field sqrsum 0
field min -nan
field max -nan
attr source  symbolErrorRate
attr title  "Symbol error rate, histogram"
bin	-INF	0
bin	-0.5	0
bin	-0.46666666666667	0
bin	-0.43333333333333	0
bin	-0.4	0
bin	-0.36666666666667	0
bin	-0.33333333333333	0
bin	-0.3	0
bin	-0.26666666666667	0
bin	-0.23333333333333	0
bin	-0.2	0
bin	-0.16666666666667	0
bin	-0.13333333333333	0
bin	-0.1	0
bin	-0.066666666666667	0
bin	-0.033333333333333	0
bin	0	0
bin	0.033333333333333	0
bin	0.066666666666667	0
bin	0.1	0
bin	0.13333333333333	0
bin	0.16666666666667	0
bin	0.2	0
bin	0.23333333333333	0
bin	0.26666666666667	0
bin	0.3	0
bin	0.33333333333333	0
bin	0.36666666666667	0
bin	0.4	0
bin	0.43333333333333	0
bin	0.46666666666667	0
bin	0.5	0
statistic scenarioPRJP1.node[35].wlan.radio 	bitErrorRate:histogram
field count 0
field mean -nan
field stddev -nan
field sum 0
field sqrsum 0
field min -nan
field max -nan
attr source  bitErrorRate
attr title  "Bit error rate, histogram"
bin	-INF	0
bin	-0.5	0
bin	-0.46666666666667	0
bin	-0.43333333333333	0
bin	-0.4	0
bin	-0.36666666666667	0
bin	-0.33333333333333	0
bin	-0.3	0
bin	-0.26666666666667	0
bin	-0.23333333333333	0
bin	-0.2	0
bin	-0.16666666666667	0
bin	-0.13333333333333	0
bin	-0.1	0
bin	-0.066666666666667	0
bin	-0.033333333333333	0
bin	0	0
bin	0.033333333333333	0
bin	0.066666666666667	0
bin	0.1	0
bin	0.13333333333333	0
bin	0.16666666666667	0
bin	0.2	0
bin	0.23333333333333	0
bin	0.26666666666667	0
bin	0.3	0
bin	0.33333333333333	0
bin	0.36666666666667	0
bin	0.4	0
bin	0.43333333333333	0
bin	0.46666666666667	0
bin	0.5	0
statistic scenarioPRJP1.node[35].wlan.radio 	packetErrorRate:histogram
field count 327821
field mean 0.31791786925162
field stddev 0.45366303239853
field sum 104220.15381594
field sqrsum 100602.13161231
field min 0
field max 1
attr source  packetErrorRate
attr title  "Packet error rate, histogram"
bin	-INF	0
bin	-0.5	0
bin	-0.43333333333333	0
bin	-0.36666666666667	0
bin	-0.3	0
bin	-0.23333333333333	0
bin	-0.16666666666667	0
bin	-0.1	0
bin	-0.033333333333333	208995
bin	0.033333333333333	5899
bin	0.1	2772
bin	0.16666666666667	1967
bin	0.23333333333333	1500
bin	0.3	1369
bin	0.36666666666667	1096
bin	0.43333333333333	1029
bin	0.5	988
bin	0.56666666666667	957
bin	0.63333333333333	1027
bin	0.7	1016
bin	0.76666666666667	1143
bin	0.83333333333333	1282
bin	0.9	2009
bin	0.96666666666667	94772
bin	1.0333333333333	0
bin	1.1	0
bin	1.1666666666667	0
bin	1.2333333333333	0
bin	1.3	0
bin	1.3666666666667	0
bin	1.4333333333333	0
bin	1.5	0
statistic scenarioPRJP1.node[35].wlan.radio 	minSNIR:histogram
field count 327821
field mean 3564.6217202301
field stddev 82528.115359159
field sum 1168557856.9475
field sqrsum 2.2369113690627e+15
field min 0.00010981773915109
field max 7353144.7574159
attr source  minSNIR
attr title  "Min SNIR, histogram"
bin	-INF	0
bin	-1504675.4348491	0
bin	-1304052.0418121	0
bin	-1103428.6487751	0
bin	-902805.25573813	0
bin	-702181.86270113	0
bin	-501558.46966412	0
bin	-300935.07662712	0
bin	-100311.68359011	326798
bin	100311.70944689	507
bin	300935.1024839	107
bin	501558.4955209	99
bin	702181.88855791	58
bin	902805.28159491	3
bin	1103428.6746319	5
bin	1304052.0676689	2
bin	1504675.4607059	3
bin	1705298.8537429	7
bin	1905922.2467799	4
bin	2106545.6398169	5
bin	2307169.0328539	0
bin	2507792.4258909	2
bin	2708415.818928	9
bin	2909039.211965	211
bin	3109662.605002	0
bin	3310285.998039	0
bin	3510909.391076	0
bin	3711532.784113	0
bin	3912156.17715	0
bin	4112779.570187	0
bin	4313402.963224	0
bin	4514026.356261	1
scalar scenarioPRJP1.node[35].lo0.lo 	droppedPkBitError:count 	0
attr interpolationmode  none
attr source  dropPkBitError
attr title  "packets dropped/bit error, count"
scalar scenarioPRJP1.node[35].lo0.lo 	droppedPkBitError:sum(packetBytes) 	0
attr interpolationmode  none
attr source  dropPkBitError
attr title  "packets dropped/bit error, sum(packetBytes)"
scalar scenarioPRJP1.node[35].lo0.lo 	rcvdPkFromHL:count 	0
attr interpolationmode  none
attr source  packetReceivedFromUpper
attr title  "packets received from higher layer, count"
scalar scenarioPRJP1.node[35].lo0.lo 	rcvdPkFromHL:sum(packetBytes) 	0
attr interpolationmode  none
attr source  packetReceivedFromUpper
attr title  "packets received from higher layer, sum(packetBytes)"
scalar scenarioPRJP1.node[35].lo0.lo 	passedUpPk:count 	0
attr interpolationmode  none
attr source  packetSentToUpper
attr title  "packets passed to higher layer, count"
scalar scenarioPRJP1.node[35].lo0.lo 	passedUpPk:sum(packetBytes) 	0
attr interpolationmode  none
attr source  packetSentToUpper
attr title  "packets passed to higher layer, sum(packetBytes)"
scalar scenarioPRJP1.node[19].app 	"Total sent" 	5017
scalar scenarioPRJP1.node[19].app 	"Total received" 	1205
scalar scenarioPRJP1.node[19].app 	"Total deleted" 	149
scalar scenarioPRJP1.node[19].app 	dropPk:count 	149
attr interpolationmode  none
attr source  dropPk
attr title  "packets dropped, count"
scalar scenarioPRJP1.node[19].app 	dropPk:sum(packetBytes) 	76288
attr interpolationmode  none
attr source  dropPk
attr title  "packets dropped, sum(packetBytes)"
scalar scenarioPRJP1.node[19].app 	outOfOrderPk:count 	3
attr interpolationmode  none
attr source  outOfOrderPk
attr title  "packets received out of order, count"
scalar scenarioPRJP1.node[19].app 	outOfOrderPk:sum(packetBytes) 	1536
attr interpolationmode  none
attr source  outOfOrderPk
attr title  "packets received out of order, sum(packetBytes)"
scalar scenarioPRJP1.node[19].app 	rcvdPk:count 	1205
attr interpolationmode  none
attr source  rcvdPk
attr title  "packets received, count"
scalar scenarioPRJP1.node[19].app 	rcvdPk:sum(packetBytes) 	616960
attr interpolationmode  none
attr source  rcvdPk
attr title  "packets received, sum(packetBytes)"
statistic scenarioPRJP1.node[19].app 	endToEndDelay:histogram
field count 1205
field mean 4.597841555809
field stddev 5.6466647891803
field sum 5540.3990747498
field sqrsum 63863.204284259
field min 0.000891016978
field max 19.904706865216
attr interpolationmode  none
attr source  messageAge(rcvdPk)
attr title  "delay, histogram"
attr unit  s
bin	-INF	0
bin	-9.9509223985805	0
bin	-8.6240055424118	0
bin	-7.297088686243	0
bin	-5.9701718300743	0
bin	-4.6432549739056	0
bin	-3.3163381177368	0
bin	-1.9894212615681	0
bin	-0.66250440539937	499
bin	0.66441245076937	115
bin	1.9913293069381	86
bin	3.3182461631068	67
bin	4.6451630192756	59
bin	5.9720798754443	44
bin	7.298996731613	59
bin	8.6259135877818	43
bin	9.9528304439505	32
bin	11.279747300119	37
bin	12.606664156288	43
bin	13.933581012457	29
bin	15.260497868625	28
bin	16.587414724794	32
bin	17.914331580963	19
bin	19.241248437132	13
bin	20.5681652933	0
bin	21.895082149469	0
bin	23.221999005638	0
bin	24.548915861807	0
bin	25.875832717975	0
bin	27.202749574144	0
bin	28.529666430313	0
bin	29.856583286481	0
scalar scenarioPRJP1.node[19].app 	sentPk:count 	5017
attr interpolationmode  none
attr source  sentPk
attr title  "packets sent, count"
scalar scenarioPRJP1.node[19].app 	sentPk:sum(packetBytes) 	2568704
attr interpolationmode  none
attr source  sentPk
attr title  "packets sent, sum(packetBytes)"
scalar scenarioPRJP1.node[19].udp 	droppedPkBadChecksum:count 	0
attr interpolationmode  none
attr title  "packets dropped (checksum error), count"
scalar scenarioPRJP1.node[19].udp 	droppedPkWrongPort:count 	3
attr interpolationmode  none
attr title  "packets dropped (wrong port), count"
scalar scenarioPRJP1.node[19].udp 	passedUpPk:count 	1357
attr interpolationmode  none
attr title  "packets passed up, count"
scalar scenarioPRJP1.node[19].udp 	rcvdPk:count 	1360
attr interpolationmode  none
attr source  rcvdPk
attr title  "packets received, count"
scalar scenarioPRJP1.node[19].udp 	rcvdPk:sum(packetBytes) 	707200
attr interpolationmode  none
attr source  rcvdPk
attr title  "packets received, sum(packetBytes)"
scalar scenarioPRJP1.node[19].udp 	sentPk:count 	5017
attr interpolationmode  none
attr source  sentPk
attr title  "packets sent, count"
scalar scenarioPRJP1.node[19].udp 	sentPk:sum(packetBytes) 	2608840
attr interpolationmode  none
attr source  sentPk
attr title  "packets sent, sum(packetBytes)"
scalar scenarioPRJP1.node[19].networkLayer.arp 	failedARPResolution:count 	14
attr title  "ARP failed resolutions, count"
scalar scenarioPRJP1.node[19].networkLayer.arp 	completedARPResolution:count 	1349
attr title  "ARP completed resolutions, count"
scalar scenarioPRJP1.node[19].networkLayer.arp 	initiatedARPResolution:count 	155
attr title  "ARP initiated resolutions, count"
scalar scenarioPRJP1.node[19].networkLayer.arp 	sentReply:count 	116
attr title  "ARP replies sent, count"
scalar scenarioPRJP1.node[19].networkLayer.arp 	sentReq:count 	272
attr title  "ARP request sent, count"
scalar scenarioPRJP1.node[19].mobility 	startTime 	0.1
scalar scenarioPRJP1.node[19].mobility 	totalTime 	1809.6
scalar scenarioPRJP1.node[19].mobility 	stopTime 	1809.8
scalar scenarioPRJP1.node[19].mobility 	minSpeed 	2.475629808854e-13
scalar scenarioPRJP1.node[19].mobility 	maxSpeed 	18.06192472088
scalar scenarioPRJP1.node[19].mobility 	totalDistance 	19977.27325513
scalar scenarioPRJP1.node[19].mobility 	totalCO2Emission 	5077.2228795362
scalar scenarioPRJP1.node[19].wlan.mgmt 	dataQueueLen:max 	41
attr interpolationmode  sample-hold
attr title  "data queue length, max"
scalar scenarioPRJP1.node[19].wlan.mgmt 	dataQueueLen:timeavg 	0.00023633159640935
attr interpolationmode  sample-hold
attr title  "data queue length, timeavg"
scalar scenarioPRJP1.node[19].wlan.mgmt 	dropPkByQueue:count 	0
attr interpolationmode  none
attr source  dropPkByQueue
attr title  "packets dropped by queue, count"
scalar scenarioPRJP1.node[19].wlan.mgmt 	dropPkByQueue:sum(packetBytes) 	0
attr interpolationmode  none
attr source  dropPkByQueue
attr title  "packets dropped by queue, sum(packetBytes)"
scalar scenarioPRJP1.node[19].wlan.mac 	"number of received packets" 	8178
scalar scenarioPRJP1.node[19].wlan.mac 	"number of collisions" 	126103
scalar scenarioPRJP1.node[19].wlan.mac 	"number of internal collisions" 	2
scalar scenarioPRJP1.node[19].wlan.mac 	"number of retry for AC 0" 	20011
scalar scenarioPRJP1.node[19].wlan.mac 	"number of retry for AC 1" 	34
scalar scenarioPRJP1.node[19].wlan.mac 	"number of retry for AC 2" 	0
scalar scenarioPRJP1.node[19].wlan.mac 	"number of retry for AC 3" 	0
scalar scenarioPRJP1.node[19].wlan.mac 	"sent and received bits" 	72417296
scalar scenarioPRJP1.node[19].wlan.mac 	"sent packet within AC 0" 	7814
scalar scenarioPRJP1.node[19].wlan.mac 	"sent packet within AC 1" 	18
scalar scenarioPRJP1.node[19].wlan.mac 	"sent packet within AC 2" 	0
scalar scenarioPRJP1.node[19].wlan.mac 	"sent packet within AC 3" 	0
scalar scenarioPRJP1.node[19].wlan.mac 	"sent in TXOP " 	0
scalar scenarioPRJP1.node[19].wlan.mac 	"sentWithoutRetry AC 0" 	5219
scalar scenarioPRJP1.node[19].wlan.mac 	"sentWithoutRetry AC 1" 	9
scalar scenarioPRJP1.node[19].wlan.mac 	"sentWithoutRetry AC 2" 	0
scalar scenarioPRJP1.node[19].wlan.mac 	"sentWithoutRetry AC 3" 	0
scalar scenarioPRJP1.node[19].wlan.mac 	"numGivenUp AC 0" 	2145
scalar scenarioPRJP1.node[19].wlan.mac 	"numGivenUp AC 1" 	1
scalar scenarioPRJP1.node[19].wlan.mac 	"numGivenUp AC 2" 	0
scalar scenarioPRJP1.node[19].wlan.mac 	"numGivenUp AC 3" 	0
scalar scenarioPRJP1.node[19].wlan.mac 	"numDropped AC 0" 	28
scalar scenarioPRJP1.node[19].wlan.mac 	"numDropped AC 1" 	0
scalar scenarioPRJP1.node[19].wlan.mac 	"numDropped AC 2" 	0
scalar scenarioPRJP1.node[19].wlan.mac 	"numDropped AC 3" 	0
scalar scenarioPRJP1.node[19].wlan.mac 	rcvdPkFromLL:count 	370236
attr interpolationmode  none
attr source  packetReceivedFromLower
attr title  "packets received from lower layer, count"
scalar scenarioPRJP1.node[19].wlan.mac 	rcvdPkFromLL:sum(packetBytes) 	123771538
attr interpolationmode  none
attr source  packetReceivedFromLower
attr title  "packets received from lower layer, sum(packetBytes)"
scalar scenarioPRJP1.node[19].wlan.mac 	sentDownPk:count 	66481
attr interpolationmode  none
attr source  packetSentToLower
attr title  "packets sent to lower layer, count"
scalar scenarioPRJP1.node[19].wlan.mac 	sentDownPk:sum(packetBytes) 	21679631
attr interpolationmode  none
attr source  packetSentToLower
attr title  "packets sent to lower layer, sum(packetBytes)"
scalar scenarioPRJP1.node[19].wlan.mac 	rcvdPkFromHL:count 	38288
attr interpolationmode  none
attr source  packetReceivedFromUpper
attr title  "packets received from higher layer, count"
scalar scenarioPRJP1.node[19].wlan.mac 	rcvdPkFromHL:sum(packetBytes) 	10279958
attr interpolationmode  none
attr source  packetReceivedFromUpper
attr title  "packets received from higher layer, sum(packetBytes)"
scalar scenarioPRJP1.node[19].wlan.mac 	passedUpPk:count 	112555
attr interpolationmode  none
attr source  packetSentToUpper
attr title  "packets passed to higher layer, count"
scalar scenarioPRJP1.node[19].wlan.mac 	passedUpPk:sum(packetBytes) 	21701161
attr interpolationmode  none
attr source  packetSentToUpper
attr title  "packets passed to higher layer, sum(packetBytes)"
statistic scenarioPRJP1.node[19].wlan.radio 	radioChannel:histogram
field count 1
field mean 3
field stddev -nan
field sum 3
field sqrsum 9
field min 3
field max 3
attr interpolationmode  sample-hold
attr source  radioChannelChanged
attr title  "Radio channel, histogram"
bin	-INF	0
bin	2	0
bin	3	1
bin	4	0
scalar scenarioPRJP1.node[19].wlan.radio 	transmissionState:count 	265924
attr interpolationmode  sample-hold
attr source  transmissionStateChanged
attr title  "Radio transmission state, count"
scalar scenarioPRJP1.node[19].wlan.radio 	receptionState:count 	1836121
attr interpolationmode  sample-hold
attr source  receptionStateChanged
attr title  "Radio reception state, count"
scalar scenarioPRJP1.node[19].wlan.radio 	radioMode:count 	132964
attr interpolationmode  sample-hold
attr source  radioModeChanged
attr title  "Radio mode, count"
statistic scenarioPRJP1.node[19].wlan.radio 	symbolErrorRate:histogram
field count 0
field mean -nan
field stddev -nan
field sum 0
field sqrsum 0
field min -nan
field max -nan
attr source  symbolErrorRate
attr title  "Symbol error rate, histogram"
bin	-INF	0
bin	-0.5	0
bin	-0.46666666666667	0
bin	-0.43333333333333	0
bin	-0.4	0
bin	-0.36666666666667	0
bin	-0.33333333333333	0
bin	-0.3	0
bin	-0.26666666666667	0
bin	-0.23333333333333	0
bin	-0.2	0
bin	-0.16666666666667	0
bin	-0.13333333333333	0
bin	-0.1	0
bin	-0.066666666666667	0
bin	-0.033333333333333	0
bin	0	0
bin	0.033333333333333	0
bin	0.066666666666667	0
bin	0.1	0
bin	0.13333333333333	0
bin	0.16666666666667	0
bin	0.2	0
bin	0.23333333333333	0
bin	0.26666666666667	0
bin	0.3	0
bin	0.33333333333333	0
bin	0.36666666666667	0
bin	0.4	0
bin	0.43333333333333	0
bin	0.46666666666667	0
bin	0.5	0
statistic scenarioPRJP1.node[19].wlan.radio 	bitErrorRate:histogram
field count 0
field mean -nan
field stddev -nan
field sum 0
field sqrsum 0
field min -nan
field max -nan
attr source  bitErrorRate
attr title  "Bit error rate, histogram"
bin	-INF	0
bin	-0.5	0
bin	-0.46666666666667	0
bin	-0.43333333333333	0
bin	-0.4	0
bin	-0.36666666666667	0
bin	-0.33333333333333	0
bin	-0.3	0
bin	-0.26666666666667	0
bin	-0.23333333333333	0
bin	-0.2	0
bin	-0.16666666666667	0
bin	-0.13333333333333	0
bin	-0.1	0
bin	-0.066666666666667	0
bin	-0.033333333333333	0
bin	0	0
bin	0.033333333333333	0
bin	0.066666666666667	0
bin	0.1	0
bin	0.13333333333333	0
bin	0.16666666666667	0
bin	0.2	0
bin	0.23333333333333	0
bin	0.26666666666667	0
bin	0.3	0
bin	0.33333333333333	0
bin	0.36666666666667	0
bin	0.4	0
bin	0.43333333333333	0
bin	0.46666666666667	0
bin	0.5	0
statistic scenarioPRJP1.node[19].wlan.radio 	packetErrorRate:histogram
field count 370236
field mean 0.3093588014985
field stddev 0.45068229978668
field sum 114535.7652316
field sqrsum 110632.75705274
field min 0
field max 1
attr source  packetErrorRate
attr title  "Packet error rate, histogram"
bin	-INF	105549
bin	-3.2637945679426e-09	0
bin	-2.8286219588836e-09	0
bin	-2.3934493498246e-09	0
bin	-1.9582767407655e-09	0
bin	-1.5231041317065e-09	0
bin	-1.0879315226475e-09	0
bin	-6.5275891358851e-10	0
bin	-2.175863045295e-10	173550
bin	2.175863045295e-10	2350
bin	6.5275891358851e-10	1153
bin	1.0879315226475e-09	784
bin	1.5231041317065e-09	619
bin	1.9582767407655e-09	475
bin	2.3934493498245e-09	421
bin	2.8286219588836e-09	337
bin	3.2637945679426e-09	313
bin	3.6989671770016e-09	249
bin	4.1341397860606e-09	245
bin	4.5693123951196e-09	205
bin	5.0044850041786e-09	209
bin	5.4396576132376e-09	185
bin	5.8748302222966e-09	158
bin	6.3100028313556e-09	175
bin	6.7451754404146e-09	153
bin	7.1803480494736e-09	125
bin	7.6155206585327e-09	142
bin	8.0506932675917e-09	131
bin	8.4858658766507e-09	129
bin	8.9210384857097e-09	131
bin	9.3562110947687e-09	116
bin	9.7913837038277e-09	82332
statistic scenarioPRJP1.node[19].wlan.radio 	minSNIR:histogram
field count 370236
field mean 2806.8894176688
field stddev 60915.801973704
field sum 1039211510.44
field sqrsum 1.3767608986368e+15
field min 0.00012916064987477
field max 3012958.8769377
attr source  minSNIR
attr title  "Min SNIR, histogram"
bin	-INF	0
bin	-56791.224853189	0
bin	-49217.926634106	0
bin	-41644.628415023	0
bin	-34071.33019594	0
bin	-26498.031976857	0
bin	-18924.733757775	0
bin	-11351.435538692	0
bin	-3778.1373196086	358762
bin	3795.1608994743	5942
bin	11368.459118557	1840
bin	18941.75733764	671
bin	26515.055556723	396
bin	34088.353775806	205
bin	41661.651994889	139
bin	49234.950213972	202
bin	56808.248433055	134
bin	64381.546652138	78
bin	71954.844871221	380
bin	79528.143090304	40
bin	87101.441309387	297
bin	94674.73952847	36
bin	102248.03774755	56
bin	109821.33596664	61
bin	117394.63418572	44
bin	124967.9324048	45
bin	132541.23062388	12
bin	140114.52884297	11
bin	147687.82706205	34
bin	155261.12528113	18
bin	162834.42350022	14
bin	170407.7217193	819
scalar scenarioPRJP1.node[19].lo0.lo 	droppedPkBitError:count 	0
attr interpolationmode  none
attr source  dropPkBitError
attr title  "packets dropped/bit error, count"
scalar scenarioPRJP1.node[19].lo0.lo 	droppedPkBitError:sum(packetBytes) 	0
attr interpolationmode  none
attr source  dropPkBitError
attr title  "packets dropped/bit error, sum(packetBytes)"
scalar scenarioPRJP1.node[19].lo0.lo 	rcvdPkFromHL:count 	2
attr interpolationmode  none
attr source  packetReceivedFromUpper
attr title  "packets received from higher layer, count"
scalar scenarioPRJP1.node[19].lo0.lo 	rcvdPkFromHL:sum(packetBytes) 	112
attr interpolationmode  none
attr source  packetReceivedFromUpper
attr title  "packets received from higher layer, sum(packetBytes)"
scalar scenarioPRJP1.node[19].lo0.lo 	passedUpPk:count 	2
attr interpolationmode  none
attr source  packetSentToUpper
attr title  "packets passed to higher layer, count"
scalar scenarioPRJP1.node[19].lo0.lo 	passedUpPk:sum(packetBytes) 	112
attr interpolationmode  none
attr source  packetSentToUpper
attr title  "packets passed to higher layer, sum(packetBytes)"
scalar scenarioPRJP1.node[58].app 	"Total sent" 	5001
scalar scenarioPRJP1.node[58].app 	"Total received" 	1038
scalar scenarioPRJP1.node[58].app 	"Total deleted" 	122
scalar scenarioPRJP1.node[58].app 	dropPk:count 	122
attr interpolationmode  none
attr source  dropPk
attr title  "packets dropped, count"
scalar scenarioPRJP1.node[58].app 	dropPk:sum(packetBytes) 	62464
attr interpolationmode  none
attr source  dropPk
attr title  "packets dropped, sum(packetBytes)"
scalar scenarioPRJP1.node[58].app 	outOfOrderPk:count 	2
attr interpolationmode  none
attr source  outOfOrderPk
attr title  "packets received out of order, count"
scalar scenarioPRJP1.node[58].app 	outOfOrderPk:sum(packetBytes) 	1024
attr interpolationmode  none
attr source  outOfOrderPk
attr title  "packets received out of order, sum(packetBytes)"
scalar scenarioPRJP1.node[58].app 	rcvdPk:count 	1038
attr interpolationmode  none
attr source  rcvdPk
attr title  "packets received, count"
scalar scenarioPRJP1.node[58].app 	rcvdPk:sum(packetBytes) 	531456
attr interpolationmode  none
attr source  rcvdPk
attr title  "packets received, sum(packetBytes)"
statistic scenarioPRJP1.node[58].app 	endToEndDelay:histogram
field count 1038
field mean 4.1860085779905
field stddev 5.4955652570116
field sum 4345.0769039541
field sqrsum 49507.212473335
field min 0.000891076812
field max 19.943967357192
attr interpolationmode  none
attr source  messageAge(rcvdPk)
attr title  "delay, histogram"
attr unit  s
bin	-INF	0
bin	-9.851742597779	0
bin	-8.5380496934063	0
bin	-7.2243567890337	0
bin	-5.910663884661	0
bin	-4.5969709802883	0
bin	-3.2832780759157	0
bin	-1.969585171543	0
bin	-0.65589226717034	459
bin	0.65780063720233	97
bin	1.971493541575	75
bin	3.2851864459477	65
bin	4.5988793503203	46
bin	5.912572254693	42
bin	7.2262651590657	50
bin	8.5399580634383	37
bin	9.853650967811	17
bin	11.167343872184	23
bin	12.481036776556	21
bin	13.794729680929	24
bin	15.108422585302	28
bin	16.422115489674	23
bin	17.735808394047	13
bin	19.04950129842	18
bin	20.363194202792	0
bin	21.676887107165	0
bin	22.990580011538	0
bin	24.30427291591	0
bin	25.617965820283	0
bin	26.931658724656	0
bin	28.245351629028	0
bin	29.559044533401	0
scalar scenarioPRJP1.node[58].app 	sentPk:count 	5001
attr interpolationmode  none
attr source  sentPk
attr title  "packets sent, count"
scalar scenarioPRJP1.node[58].app 	sentPk:sum(packetBytes) 	2560512
attr interpolationmode  none
attr source  sentPk
attr title  "packets sent, sum(packetBytes)"
scalar scenarioPRJP1.node[58].udp 	droppedPkBadChecksum:count 	0
attr interpolationmode  none
attr title  "packets dropped (checksum error), count"
scalar scenarioPRJP1.node[58].udp 	droppedPkWrongPort:count 	4
attr interpolationmode  none
attr title  "packets dropped (wrong port), count"
scalar scenarioPRJP1.node[58].udp 	passedUpPk:count 	1162
attr interpolationmode  none
attr title  "packets passed up, count"
scalar scenarioPRJP1.node[58].udp 	rcvdPk:count 	1166
attr interpolationmode  none
attr source  rcvdPk
attr title  "packets received, count"
scalar scenarioPRJP1.node[58].udp 	rcvdPk:sum(packetBytes) 	606320
attr interpolationmode  none
attr source  rcvdPk
attr title  "packets received, sum(packetBytes)"
scalar scenarioPRJP1.node[58].udp 	sentPk:count 	5001
attr interpolationmode  none
attr source  sentPk
attr title  "packets sent, count"
scalar scenarioPRJP1.node[58].udp 	sentPk:sum(packetBytes) 	2600520
attr interpolationmode  none
attr source  sentPk
attr title  "packets sent, sum(packetBytes)"
scalar scenarioPRJP1.node[58].networkLayer.arp 	failedARPResolution:count 	21
attr title  "ARP failed resolutions, count"
scalar scenarioPRJP1.node[58].networkLayer.arp 	completedARPResolution:count 	1608
attr title  "ARP completed resolutions, count"
scalar scenarioPRJP1.node[58].networkLayer.arp 	initiatedARPResolution:count 	155
attr title  "ARP initiated resolutions, count"
scalar scenarioPRJP1.node[58].networkLayer.arp 	sentReply:count 	97
attr title  "ARP replies sent, count"
scalar scenarioPRJP1.node[58].networkLayer.arp 	sentReq:count 	272
attr title  "ARP request sent, count"
scalar scenarioPRJP1.node[58].mobility 	startTime 	5
scalar scenarioPRJP1.node[58].mobility 	totalTime 	1827.3
scalar scenarioPRJP1.node[58].mobility 	stopTime 	1832.4
scalar scenarioPRJP1.node[58].mobility 	minSpeed 	2.4758639290584e-13
scalar scenarioPRJP1.node[58].mobility 	maxSpeed 	16.698770597484
scalar scenarioPRJP1.node[58].mobility 	totalDistance 	16736.769969163
scalar scenarioPRJP1.node[58].mobility 	totalCO2Emission 	4588.5745771324
scalar scenarioPRJP1.node[58].wlan.mgmt 	dataQueueLen:max 	54
attr interpolationmode  sample-hold
attr title  "data queue length, max"
scalar scenarioPRJP1.node[58].wlan.mgmt 	dataQueueLen:timeavg 	0.00011153283918682
attr interpolationmode  sample-hold
attr title  "data queue length, timeavg"
scalar scenarioPRJP1.node[58].wlan.mgmt 	dropPkByQueue:count 	0
attr interpolationmode  none
attr source  dropPkByQueue
attr title  "packets dropped by queue, count"
scalar scenarioPRJP1.node[58].wlan.mgmt 	dropPkByQueue:sum(packetBytes) 	0
attr interpolationmode  none
attr source  dropPkByQueue
attr title  "packets dropped by queue, sum(packetBytes)"
scalar scenarioPRJP1.node[58].wlan.mac 	"number of received packets" 	6558
scalar scenarioPRJP1.node[58].wlan.mac 	"number of collisions" 	140438
scalar scenarioPRJP1.node[58].wlan.mac 	"number of internal collisions" 	0
scalar scenarioPRJP1.node[58].wlan.mac 	"number of retry for AC 0" 	18100
scalar scenarioPRJP1.node[58].wlan.mac 	"number of retry for AC 1" 	7
scalar scenarioPRJP1.node[58].wlan.mac 	"number of retry for AC 2" 	0
scalar scenarioPRJP1.node[58].wlan.mac 	"number of retry for AC 3" 	0
scalar scenarioPRJP1.node[58].wlan.mac 	"sent and received bits" 	66531440
scalar scenarioPRJP1.node[58].wlan.mac 	"sent packet within AC 0" 	6499
scalar scenarioPRJP1.node[58].wlan.mac 	"sent packet within AC 1" 	12
scalar scenarioPRJP1.node[58].wlan.mac 	"sent packet within AC 2" 	0
scalar scenarioPRJP1.node[58].wlan.mac 	"sent packet within AC 3" 	0
scalar scenarioPRJP1.node[58].wlan.mac 	"sent in TXOP " 	0
scalar scenarioPRJP1.node[58].wlan.mac 	"sentWithoutRetry AC 0" 	4415
scalar scenarioPRJP1.node[58].wlan.mac 	"sentWithoutRetry AC 1" 	10
scalar scenarioPRJP1.node[58].wlan.mac 	"sentWithoutRetry AC 2" 	0
scalar scenarioPRJP1.node[58].wlan.mac 	"sentWithoutRetry AC 3" 	0
scalar scenarioPRJP1.node[58].wlan.mac 	"numGivenUp AC 0" 	2032
scalar scenarioPRJP1.node[58].wlan.mac 	"numGivenUp AC 1" 	0
scalar scenarioPRJP1.node[58].wlan.mac 	"numGivenUp AC 2" 	0
scalar scenarioPRJP1.node[58].wlan.mac 	"numGivenUp AC 3" 	0
scalar scenarioPRJP1.node[58].wlan.mac 	"numDropped AC 0" 	13
scalar scenarioPRJP1.node[58].wlan.mac 	"numDropped AC 1" 	0
scalar scenarioPRJP1.node[58].wlan.mac 	"numDropped AC 2" 	0
scalar scenarioPRJP1.node[58].wlan.mac 	"numDropped AC 3" 	0
scalar scenarioPRJP1.node[58].wlan.mac 	rcvdPkFromLL:count 	393423
attr interpolationmode  none
attr source  packetReceivedFromLower
attr title  "packets received from lower layer, count"
scalar scenarioPRJP1.node[58].wlan.mac 	rcvdPkFromLL:sum(packetBytes) 	132605230
attr interpolationmode  none
attr source  packetReceivedFromLower
attr title  "packets received from lower layer, sum(packetBytes)"
scalar scenarioPRJP1.node[58].wlan.mac 	sentDownPk:count 	61513
attr interpolationmode  none
attr source  packetSentToLower
attr title  "packets sent to lower layer, count"
scalar scenarioPRJP1.node[58].wlan.mac 	sentDownPk:sum(packetBytes) 	19827677
attr interpolationmode  none
attr source  packetSentToLower
attr title  "packets sent to lower layer, sum(packetBytes)"
scalar scenarioPRJP1.node[58].wlan.mac 	rcvdPkFromHL:count 	36861
attr interpolationmode  none
attr source  packetReceivedFromUpper
attr title  "packets received from higher layer, count"
scalar scenarioPRJP1.node[58].wlan.mac 	rcvdPkFromHL:sum(packetBytes) 	9478626
attr interpolationmode  none
attr source  packetReceivedFromUpper
attr title  "packets received from higher layer, sum(packetBytes)"
scalar scenarioPRJP1.node[58].wlan.mac 	passedUpPk:count 	115093
attr interpolationmode  none
attr source  packetSentToUpper
attr title  "packets passed to higher layer, count"
scalar scenarioPRJP1.node[58].wlan.mac 	passedUpPk:sum(packetBytes) 	21444860
attr interpolationmode  none
attr source  packetSentToUpper
attr title  "packets passed to higher layer, sum(packetBytes)"
statistic scenarioPRJP1.node[58].wlan.radio 	radioChannel:histogram
field count 1
field mean 3
field stddev -nan
field sum 3
field sqrsum 9
field min 3
field max 3
attr interpolationmode  sample-hold
attr source  radioChannelChanged
attr title  "Radio channel, histogram"
bin	-INF	0
bin	2	0
bin	3	1
bin	4	0
scalar scenarioPRJP1.node[58].wlan.radio 	transmissionState:count 	246052
attr interpolationmode  sample-hold
attr source  transmissionStateChanged
attr title  "Radio transmission state, count"
scalar scenarioPRJP1.node[58].wlan.radio 	receptionState:count 	1916521
attr interpolationmode  sample-hold
attr source  receptionStateChanged
attr title  "Radio reception state, count"
scalar scenarioPRJP1.node[58].wlan.radio 	radioMode:count 	123028
attr interpolationmode  sample-hold
attr source  radioModeChanged
attr title  "Radio mode, count"
statistic scenarioPRJP1.node[58].wlan.radio 	symbolErrorRate:histogram
field count 0
field mean -nan
field stddev -nan
field sum 0
field sqrsum 0
field min -nan
field max -nan
attr source  symbolErrorRate
attr title  "Symbol error rate, histogram"
bin	-INF	0
bin	-0.5	0
bin	-0.46666666666667	0
bin	-0.43333333333333	0
bin	-0.4	0
bin	-0.36666666666667	0
bin	-0.33333333333333	0
bin	-0.3	0
bin	-0.26666666666667	0
bin	-0.23333333333333	0
bin	-0.2	0
bin	-0.16666666666667	0
bin	-0.13333333333333	0
bin	-0.1	0
bin	-0.066666666666667	0
bin	-0.033333333333333	0
bin	0	0
bin	0.033333333333333	0
bin	0.066666666666667	0
bin	0.1	0
bin	0.13333333333333	0
bin	0.16666666666667	0
bin	0.2	0
bin	0.23333333333333	0
bin	0.26666666666667	0
bin	0.3	0
bin	0.33333333333333	0
bin	0.36666666666667	0
bin	0.4	0
bin	0.43333333333333	0
bin	0.46666666666667	0
bin	0.5	0
statistic scenarioPRJP1.node[58].wlan.radio 	bitErrorRate:histogram
field count 0
field mean -nan
field stddev -nan
field sum 0
field sqrsum 0
field min -nan
field max -nan
attr source  bitErrorRate
attr title  "Bit error rate, histogram"
bin	-INF	0
bin	-0.5	0
bin	-0.46666666666667	0
bin	-0.43333333333333	0
bin	-0.4	0
bin	-0.36666666666667	0
bin	-0.33333333333333	0
bin	-0.3	0
bin	-0.26666666666667	0
bin	-0.23333333333333	0
bin	-0.2	0
bin	-0.16666666666667	0
bin	-0.13333333333333	0
bin	-0.1	0
bin	-0.066666666666667	0
bin	-0.033333333333333	0
bin	0	0
bin	0.033333333333333	0
bin	0.066666666666667	0
bin	0.1	0
bin	0.13333333333333	0
bin	0.16666666666667	0
bin	0.2	0
bin	0.23333333333333	0
bin	0.26666666666667	0
bin	0.3	0
bin	0.33333333333333	0
bin	0.36666666666667	0
bin	0.4	0
bin	0.43333333333333	0
bin	0.46666666666667	0
bin	0.5	0
statistic scenarioPRJP1.node[58].wlan.radio 	packetErrorRate:histogram
field count 393423
field mean 0.32637395435102
field stddev 0.45786137033392
field sum 128403.02024264
field sqrsum 124383.22283225
field min 0
field max 1
attr source  packetErrorRate
attr title  "Packet error rate, histogram"
bin	-INF	0
bin	-0.5	0
bin	-0.46666666666667	0
bin	-0.43333333333333	0
bin	-0.4	0
bin	-0.36666666666667	0
bin	-0.33333333333333	0
bin	-0.3	0
bin	-0.26666666666667	0
bin	-0.23333333333333	0
bin	-0.2	0
bin	-0.16666666666667	0
bin	-0.13333333333333	0
bin	-0.1	0
bin	-0.066666666666667	0
bin	-0.033333333333333	0
bin	0	248843
bin	0.033333333333333	3950
bin	0.066666666666667	2521
bin	0.1	1795
bin	0.13333333333333	1357
bin	0.16666666666667	1149
bin	0.2	992
bin	0.23333333333333	878
bin	0.26666666666667	842
bin	0.3	741
bin	0.33333333333333	671
bin	0.36666666666667	619
bin	0.4	614
bin	0.43333333333333	636
bin	0.46666666666667	545
bin	0.5	127270
statistic scenarioPRJP1.node[58].wlan.radio 	minSNIR:histogram
field count 393423
field mean 4280.788297206
field stddev 84115.93515184
field sum 1684160574.2517
field sqrsum 2.7908631766496e+15
field min 0.00011483935193634
field max 6977164.4518275
attr source  minSNIR
attr title  "Min SNIR, histogram"
bin	-INF	0
bin	-63549.062965029	0
bin	-55074.11363857	0
bin	-46599.164312111	0
bin	-38124.214985653	0
bin	-29649.265659194	0
bin	-21174.316332735	0
bin	-12699.367006277	0
bin	-4224.4176798181	379549
bin	4250.5316466405	6912
bin	12725.480973099	2375
bin	21200.430299558	709
bin	29675.379626016	579
bin	38150.328952475	332
bin	46625.278278934	279
bin	55100.227605392	248
bin	63575.176931851	224
bin	72050.12625831	151
bin	80525.075584768	171
bin	89000.024911227	222
bin	97474.974237686	70
bin	105949.92356414	30
bin	114424.8728906	41
bin	122899.82221706	40
bin	131374.77154352	39
bin	139849.72086998	30
bin	148324.67019644	23
bin	156799.6195229	20
bin	165274.56884935	27
bin	173749.51817581	107
bin	182224.46750227	21
bin	190699.41682873	1224
scalar scenarioPRJP1.node[58].lo0.lo 	droppedPkBitError:count 	0
attr interpolationmode  none
attr source  dropPkBitError
attr title  "packets dropped/bit error, count"
scalar scenarioPRJP1.node[58].lo0.lo 	droppedPkBitError:sum(packetBytes) 	0
attr interpolationmode  none
attr source  dropPkBitError
attr title  "packets dropped/bit error, sum(packetBytes)"
scalar scenarioPRJP1.node[58].lo0.lo 	rcvdPkFromHL:count 	0
attr interpolationmode  none
attr source  packetReceivedFromUpper
attr title  "packets received from higher layer, count"
scalar scenarioPRJP1.node[58].lo0.lo 	rcvdPkFromHL:sum(packetBytes) 	0
attr interpolationmode  none
attr source  packetReceivedFromUpper
attr title  "packets received from higher layer, sum(packetBytes)"
scalar scenarioPRJP1.node[58].lo0.lo 	passedUpPk:count 	0
attr interpolationmode  none
attr source  packetSentToUpper
attr title  "packets passed to higher layer, count"
scalar scenarioPRJP1.node[58].lo0.lo 	passedUpPk:sum(packetBytes) 	0
attr interpolationmode  none
attr source  packetSentToUpper
attr title  "packets passed to higher layer, sum(packetBytes)"
scalar scenarioPRJP1.node[23].app 	"Total sent" 	5019
scalar scenarioPRJP1.node[23].app 	"Total received" 	1114
scalar scenarioPRJP1.node[23].app 	"Total deleted" 	126
scalar scenarioPRJP1.node[23].app 	dropPk:count 	126
attr interpolationmode  none
attr source  dropPk
attr title  "packets dropped, count"
scalar scenarioPRJP1.node[23].app 	dropPk:sum(packetBytes) 	64512
attr interpolationmode  none
attr source  dropPk
attr title  "packets dropped, sum(packetBytes)"
scalar scenarioPRJP1.node[23].app 	outOfOrderPk:count 	0
attr interpolationmode  none
attr source  outOfOrderPk
attr title  "packets received out of order, count"
scalar scenarioPRJP1.node[23].app 	outOfOrderPk:sum(packetBytes) 	0
attr interpolationmode  none
attr source  outOfOrderPk
attr title  "packets received out of order, sum(packetBytes)"
scalar scenarioPRJP1.node[23].app 	rcvdPk:count 	1114
attr interpolationmode  none
attr source  rcvdPk
attr title  "packets received, count"
scalar scenarioPRJP1.node[23].app 	rcvdPk:sum(packetBytes) 	570368
attr interpolationmode  none
attr source  rcvdPk
attr title  "packets received, sum(packetBytes)"
statistic scenarioPRJP1.node[23].app 	endToEndDelay:histogram
field count 1114
field mean 4.6163152961923
field stddev 5.7057577665191
field sum 5142.5752399582
field sqrsum 59974.211333224
field min 0.000891049596
field max 19.953635768325
attr interpolationmode  none
attr source  messageAge(rcvdPk)
attr title  "delay, histogram"
attr unit  s
bin	-INF	0
bin	-9.1987796083425	0
bin	-7.9721556483962	0
bin	-6.7455316884498	0
bin	-5.5189077285035	0
bin	-4.2922837685572	0
bin	-3.0656598086108	0
bin	-1.8390358486645	0
bin	-0.61241188871817	464
bin	0.61421207122817	92
bin	1.8408360311745	67
bin	3.0674599911208	68
bin	4.2940839510672	65
bin	5.5207079110135	46
bin	6.7473318709598	36
bin	7.9739558309062	27
bin	9.2005797908525	38
bin	10.427203750799	39
bin	11.653827710745	23
bin	12.880451670692	28
bin	14.107075630638	25
bin	15.333699590584	39
bin	16.560323550531	18
bin	17.786947510477	25
bin	19.013571470423	14
bin	20.24019543037	0
bin	21.466819390316	0
bin	22.693443350262	0
bin	23.920067310209	0
bin	25.146691270155	0
bin	26.373315230101	0
bin	27.599939190048	0
scalar scenarioPRJP1.node[23].app 	sentPk:count 	5019
attr interpolationmode  none
attr source  sentPk
attr title  "packets sent, count"
scalar scenarioPRJP1.node[23].app 	sentPk:sum(packetBytes) 	2569728
attr interpolationmode  none
attr source  sentPk
attr title  "packets sent, sum(packetBytes)"
scalar scenarioPRJP1.node[23].udp 	droppedPkBadChecksum:count 	0
attr interpolationmode  none
attr title  "packets dropped (checksum error), count"
scalar scenarioPRJP1.node[23].udp 	droppedPkWrongPort:count 	4
attr interpolationmode  none
attr title  "packets dropped (wrong port), count"
scalar scenarioPRJP1.node[23].udp 	passedUpPk:count 	1240
attr interpolationmode  none
attr title  "packets passed up, count"
scalar scenarioPRJP1.node[23].udp 	rcvdPk:count 	1244
attr interpolationmode  none
attr source  rcvdPk
attr title  "packets received, count"
scalar scenarioPRJP1.node[23].udp 	rcvdPk:sum(packetBytes) 	646880
attr interpolationmode  none
attr source  rcvdPk
attr title  "packets received, sum(packetBytes)"
scalar scenarioPRJP1.node[23].udp 	sentPk:count 	5019
attr interpolationmode  none
attr source  sentPk
attr title  "packets sent, count"
scalar scenarioPRJP1.node[23].udp 	sentPk:sum(packetBytes) 	2609880
attr interpolationmode  none
attr source  sentPk
attr title  "packets sent, sum(packetBytes)"
scalar scenarioPRJP1.node[23].networkLayer.arp 	failedARPResolution:count 	20
attr title  "ARP failed resolutions, count"
scalar scenarioPRJP1.node[23].networkLayer.arp 	completedARPResolution:count 	1349
attr title  "ARP completed resolutions, count"
scalar scenarioPRJP1.node[23].networkLayer.arp 	initiatedARPResolution:count 	174
attr title  "ARP initiated resolutions, count"
scalar scenarioPRJP1.node[23].networkLayer.arp 	sentReply:count 	91
attr title  "ARP replies sent, count"
scalar scenarioPRJP1.node[23].networkLayer.arp 	sentReq:count 	305
attr title  "ARP request sent, count"
scalar scenarioPRJP1.node[23].mobility 	startTime 	2.5
scalar scenarioPRJP1.node[23].mobility 	totalTime 	1832.8
scalar scenarioPRJP1.node[23].mobility 	stopTime 	1835.4
scalar scenarioPRJP1.node[23].mobility 	minSpeed 	2.4759429483198e-13
scalar scenarioPRJP1.node[23].mobility 	maxSpeed 	21.672
scalar scenarioPRJP1.node[23].mobility 	totalDistance 	20886.796054008
scalar scenarioPRJP1.node[23].mobility 	totalCO2Emission 	5825.0097773207
scalar scenarioPRJP1.node[23].wlan.mgmt 	dataQueueLen:max 	47
attr interpolationmode  sample-hold
attr title  "data queue length, max"
scalar scenarioPRJP1.node[23].wlan.mgmt 	dataQueueLen:timeavg 	0
attr interpolationmode  sample-hold
attr title  "data queue length, timeavg"
scalar scenarioPRJP1.node[23].wlan.mgmt 	dropPkByQueue:count 	0
attr interpolationmode  none
attr source  dropPkByQueue
attr title  "packets dropped by queue, count"
scalar scenarioPRJP1.node[23].wlan.mgmt 	dropPkByQueue:sum(packetBytes) 	0
attr interpolationmode  none
attr source  dropPkByQueue
attr title  "packets dropped by queue, sum(packetBytes)"
scalar scenarioPRJP1.node[23].wlan.mac 	"number of received packets" 	6963
scalar scenarioPRJP1.node[23].wlan.mac 	"number of collisions" 	114334
scalar scenarioPRJP1.node[23].wlan.mac 	"number of internal collisions" 	0
scalar scenarioPRJP1.node[23].wlan.mac 	"number of retry for AC 0" 	17145
scalar scenarioPRJP1.node[23].wlan.mac 	"number of retry for AC 1" 	12
scalar scenarioPRJP1.node[23].wlan.mac 	"number of retry for AC 2" 	0
scalar scenarioPRJP1.node[23].wlan.mac 	"number of retry for AC 3" 	0
scalar scenarioPRJP1.node[23].wlan.mac 	"sent and received bits" 	68736392
scalar scenarioPRJP1.node[23].wlan.mac 	"sent packet within AC 0" 	6867
scalar scenarioPRJP1.node[23].wlan.mac 	"sent packet within AC 1" 	14
scalar scenarioPRJP1.node[23].wlan.mac 	"sent packet within AC 2" 	0
scalar scenarioPRJP1.node[23].wlan.mac 	"sent packet within AC 3" 	0
scalar scenarioPRJP1.node[23].wlan.mac 	"sent in TXOP " 	0
scalar scenarioPRJP1.node[23].wlan.mac 	"sentWithoutRetry AC 0" 	4649
scalar scenarioPRJP1.node[23].wlan.mac 	"sentWithoutRetry AC 1" 	12
scalar scenarioPRJP1.node[23].wlan.mac 	"sentWithoutRetry AC 2" 	0
scalar scenarioPRJP1.node[23].wlan.mac 	"sentWithoutRetry AC 3" 	0
scalar scenarioPRJP1.node[23].wlan.mac 	"numGivenUp AC 0" 	1830
scalar scenarioPRJP1.node[23].wlan.mac 	"numGivenUp AC 1" 	1
scalar scenarioPRJP1.node[23].wlan.mac 	"numGivenUp AC 2" 	0
scalar scenarioPRJP1.node[23].wlan.mac 	"numGivenUp AC 3" 	0
scalar scenarioPRJP1.node[23].wlan.mac 	"numDropped AC 0" 	2
scalar scenarioPRJP1.node[23].wlan.mac 	"numDropped AC 1" 	0
scalar scenarioPRJP1.node[23].wlan.mac 	"numDropped AC 2" 	0
scalar scenarioPRJP1.node[23].wlan.mac 	"numDropped AC 3" 	0
scalar scenarioPRJP1.node[23].wlan.mac 	rcvdPkFromLL:count 	355021
attr interpolationmode  none
attr source  packetReceivedFromLower
attr title  "packets received from lower layer, count"
scalar scenarioPRJP1.node[23].wlan.mac 	rcvdPkFromLL:sum(packetBytes) 	117936159
attr interpolationmode  none
attr source  packetReceivedFromLower
attr title  "packets received from lower layer, sum(packetBytes)"
scalar scenarioPRJP1.node[23].wlan.mac 	sentDownPk:count 	61773
attr interpolationmode  none
attr source  packetSentToLower
attr title  "packets sent to lower layer, count"
scalar scenarioPRJP1.node[23].wlan.mac 	sentDownPk:sum(packetBytes) 	19468632
attr interpolationmode  none
attr source  packetSentToLower
attr title  "packets sent to lower layer, sum(packetBytes)"
scalar scenarioPRJP1.node[23].wlan.mac 	rcvdPkFromHL:count 	37655
attr interpolationmode  none
attr source  packetReceivedFromUpper
attr title  "packets received from higher layer, count"
scalar scenarioPRJP1.node[23].wlan.mac 	rcvdPkFromHL:sum(packetBytes) 	9636885
attr interpolationmode  none
attr source  packetReceivedFromUpper
attr title  "packets received from higher layer, sum(packetBytes)"
scalar scenarioPRJP1.node[23].wlan.mac 	passedUpPk:count 	114589
attr interpolationmode  none
attr source  packetSentToUpper
attr title  "packets passed to higher layer, count"
scalar scenarioPRJP1.node[23].wlan.mac 	passedUpPk:sum(packetBytes) 	21231976
attr interpolationmode  none
attr source  packetSentToUpper
attr title  "packets passed to higher layer, sum(packetBytes)"
statistic scenarioPRJP1.node[23].wlan.radio 	radioChannel:histogram
field count 1
field mean 3
field stddev -nan
field sum 3
field sqrsum 9
field min 3
field max 3
attr interpolationmode  sample-hold
attr source  radioChannelChanged
attr title  "Radio channel, histogram"
bin	-INF	0
bin	2	0
bin	3	1
bin	4	0
scalar scenarioPRJP1.node[23].wlan.radio 	transmissionState:count 	247092
attr interpolationmode  sample-hold
attr source  transmissionStateChanged
attr title  "Radio transmission state, count"
scalar scenarioPRJP1.node[23].wlan.radio 	receptionState:count 	1718395
attr interpolationmode  sample-hold
attr source  receptionStateChanged
attr title  "Radio reception state, count"
scalar scenarioPRJP1.node[23].wlan.radio 	radioMode:count 	123548
attr interpolationmode  sample-hold
attr source  radioModeChanged
attr title  "Radio mode, count"
statistic scenarioPRJP1.node[23].wlan.radio 	symbolErrorRate:histogram
field count 0
field mean -nan
field stddev -nan
field sum 0
field sqrsum 0
field min -nan
field max -nan
attr source  symbolErrorRate
attr title  "Symbol error rate, histogram"
bin	-INF	0
bin	-0.5	0
bin	-0.46666666666667	0
bin	-0.43333333333333	0
bin	-0.4	0
bin	-0.36666666666667	0
bin	-0.33333333333333	0
bin	-0.3	0
bin	-0.26666666666667	0
bin	-0.23333333333333	0
bin	-0.2	0
bin	-0.16666666666667	0
bin	-0.13333333333333	0
bin	-0.1	0
bin	-0.066666666666667	0
bin	-0.033333333333333	0
bin	0	0
bin	0.033333333333333	0
bin	0.066666666666667	0
bin	0.1	0
bin	0.13333333333333	0
bin	0.16666666666667	0
bin	0.2	0
bin	0.23333333333333	0
bin	0.26666666666667	0
bin	0.3	0
bin	0.33333333333333	0
bin	0.36666666666667	0
bin	0.4	0
bin	0.43333333333333	0
bin	0.46666666666667	0
bin	0.5	0
statistic scenarioPRJP1.node[23].wlan.radio 	bitErrorRate:histogram
field count 0
field mean -nan
field stddev -nan
field sum 0
field sqrsum 0
field min -nan
field max -nan
attr source  bitErrorRate
attr title  "Bit error rate, histogram"
bin	-INF	0
bin	-0.5	0
bin	-0.46666666666667	0
bin	-0.43333333333333	0
bin	-0.4	0
bin	-0.36666666666667	0
bin	-0.33333333333333	0
bin	-0.3	0
bin	-0.26666666666667	0
bin	-0.23333333333333	0
bin	-0.2	0
bin	-0.16666666666667	0
bin	-0.13333333333333	0
bin	-0.1	0
bin	-0.066666666666667	0
bin	-0.033333333333333	0
bin	0	0
bin	0.033333333333333	0
bin	0.066666666666667	0
bin	0.1	0
bin	0.13333333333333	0
bin	0.16666666666667	0
bin	0.2	0
bin	0.23333333333333	0
bin	0.26666666666667	0
bin	0.3	0
bin	0.33333333333333	0
bin	0.36666666666667	0
bin	0.4	0
bin	0.43333333333333	0
bin	0.46666666666667	0
bin	0.5	0
statistic scenarioPRJP1.node[23].wlan.radio 	packetErrorRate:histogram
field count 355021
field mean 0.29204283353557
field stddev 0.44273805629827
field sum 103681.33880463
field sqrsum 99869.342514639
field min 0
field max 1
attr source  packetErrorRate
attr title  "Packet error rate, histogram"
bin	-INF	0
bin	-0.5	0
bin	-0.43333333333333	0
bin	-0.36666666666667	0
bin	-0.3	0
bin	-0.23333333333333	0
bin	-0.16666666666667	0
bin	-0.1	0
bin	-0.033333333333333	235975
bin	0.033333333333333	6019
bin	0.1	3079
bin	0.16666666666667	2138
bin	0.23333333333333	1584
bin	0.3	1387
bin	0.36666666666667	1238
bin	0.43333333333333	1047
bin	0.5	1057
bin	0.56666666666667	987
bin	0.63333333333333	1054
bin	0.7	1048
bin	0.76666666666667	1148
bin	0.83333333333333	1367
bin	0.9	2098
bin	0.96666666666667	93795
bin	1.0333333333333	0
bin	1.1	0
bin	1.1666666666667	0
bin	1.2333333333333	0
bin	1.3	0
bin	1.3666666666667	0
bin	1.4333333333333	0
bin	1.5	0
statistic scenarioPRJP1.node[23].wlan.radio 	minSNIR:histogram
field count 355021
field mean 4486.1371458734
field stddev 91708.763696059
field sum 1592672895.6651
field sqrsum 2.9930397142094e+15
field min 9.349693752452e-05
field max 13240265.467476
attr source  minSNIR
attr title  "Min SNIR, histogram"
bin	-INF	0
bin	-341470.0205149	0
bin	-295940.67373238	0
bin	-250411.32694986	0
bin	-204881.98016735	0
bin	-159352.63338483	0
bin	-113823.28660232	0
bin	-68293.9398198	0
bin	-22764.593037284	350826
bin	22764.753745232	2219
bin	68294.100527747	776
bin	113823.44731026	161
bin	159352.79409278	130
bin	204882.1408753	46
bin	250411.48765781	43
bin	295940.83444033	18
bin	341470.18122284	32
bin	386999.52800536	39
bin	432528.87478788	22
bin	478058.22157039	19
bin	523587.56835291	33
bin	569116.91513542	109
bin	614646.26191794	6
bin	660175.60870045	34
bin	705704.95548297	156
bin	751234.30226549	4
bin	796763.649048	2
bin	842292.99583052	1
bin	887822.34261303	2
bin	933351.68939555	0
bin	978881.03617807	1
bin	1024410.3829606	342
scalar scenarioPRJP1.node[23].lo0.lo 	droppedPkBitError:count 	0
attr interpolationmode  none
attr source  dropPkBitError
attr title  "packets dropped/bit error, count"
scalar scenarioPRJP1.node[23].lo0.lo 	droppedPkBitError:sum(packetBytes) 	0
attr interpolationmode  none
attr source  dropPkBitError
attr title  "packets dropped/bit error, sum(packetBytes)"
scalar scenarioPRJP1.node[23].lo0.lo 	rcvdPkFromHL:count 	1
attr interpolationmode  none
attr source  packetReceivedFromUpper
attr title  "packets received from higher layer, count"
scalar scenarioPRJP1.node[23].lo0.lo 	rcvdPkFromHL:sum(packetBytes) 	56
attr interpolationmode  none
attr source  packetReceivedFromUpper
attr title  "packets received from higher layer, sum(packetBytes)"
scalar scenarioPRJP1.node[23].lo0.lo 	passedUpPk:count 	1
attr interpolationmode  none
attr source  packetSentToUpper
attr title  "packets passed to higher layer, count"
scalar scenarioPRJP1.node[23].lo0.lo 	passedUpPk:sum(packetBytes) 	56
attr interpolationmode  none
attr source  packetSentToUpper
attr title  "packets passed to higher layer, sum(packetBytes)"
scalar scenarioPRJP1.node[67].app 	"Total sent" 	5015
scalar scenarioPRJP1.node[67].app 	"Total received" 	1134
scalar scenarioPRJP1.node[67].app 	"Total deleted" 	184
scalar scenarioPRJP1.node[67].app 	dropPk:count 	184
attr interpolationmode  none
attr source  dropPk
attr title  "packets dropped, count"
scalar scenarioPRJP1.node[67].app 	dropPk:sum(packetBytes) 	94208
attr interpolationmode  none
attr source  dropPk
attr title  "packets dropped, sum(packetBytes)"
scalar scenarioPRJP1.node[67].app 	outOfOrderPk:count 	2
attr interpolationmode  none
attr source  outOfOrderPk
attr title  "packets received out of order, count"
scalar scenarioPRJP1.node[67].app 	outOfOrderPk:sum(packetBytes) 	1024
attr interpolationmode  none
attr source  outOfOrderPk
attr title  "packets received out of order, sum(packetBytes)"
scalar scenarioPRJP1.node[67].app 	rcvdPk:count 	1134
attr interpolationmode  none
attr source  rcvdPk
attr title  "packets received, count"
scalar scenarioPRJP1.node[67].app 	rcvdPk:sum(packetBytes) 	580608
attr interpolationmode  none
attr source  rcvdPk
attr title  "packets received, sum(packetBytes)"
statistic scenarioPRJP1.node[67].app 	endToEndDelay:histogram
field count 1134
field mean 4.197674732018
field stddev 5.2560266443272
field sum 4760.1631461084
field sqrsum 51281.666184001
field min 0.00087988014
field max 19.56601034484
attr interpolationmode  none
attr source  messageAge(rcvdPk)
attr title  "delay, histogram"
attr unit  s
bin	-INF	0
bin	-9.1480111519495	0
bin	-7.9281563096701	0
bin	-6.7083014673907	0
bin	-5.4884466251113	0
bin	-4.2685917828319	0
bin	-3.0487369405525	0
bin	-1.8288820982731	0
bin	-0.6090272559937	494
bin	0.6108275862857	88
bin	1.8306824285651	88
bin	3.0505372708445	55
bin	4.2703921131239	48
bin	5.4902469554033	44
bin	6.7101017976827	54
bin	7.9299566399621	42
bin	9.1498114822415	38
bin	10.369666324521	38
bin	11.5895211668	30
bin	12.80937600908	24
bin	14.029230851359	29
bin	15.249085693638	23
bin	16.468940535918	19
bin	17.688795378197	14
bin	18.908650220477	6
bin	20.128505062756	0
bin	21.348359905036	0
bin	22.568214747315	0
bin	23.788069589594	0
bin	25.007924431874	0
bin	26.227779274153	0
bin	27.447634116432	0
scalar scenarioPRJP1.node[67].app 	sentPk:count 	5015
attr interpolationmode  none
attr source  sentPk
attr title  "packets sent, count"
scalar scenarioPRJP1.node[67].app 	sentPk:sum(packetBytes) 	2567680
attr interpolationmode  none
attr source  sentPk
attr title  "packets sent, sum(packetBytes)"
scalar scenarioPRJP1.node[67].udp 	droppedPkBadChecksum:count 	0
attr interpolationmode  none
attr title  "packets dropped (checksum error), count"
scalar scenarioPRJP1.node[67].udp 	droppedPkWrongPort:count 	0
attr interpolationmode  none
attr title  "packets dropped (wrong port), count"
scalar scenarioPRJP1.node[67].udp 	passedUpPk:count 	1320
attr interpolationmode  none
attr title  "packets passed up, count"
scalar scenarioPRJP1.node[67].udp 	rcvdPk:count 	1320
attr interpolationmode  none
attr source  rcvdPk
attr title  "packets received, count"
scalar scenarioPRJP1.node[67].udp 	rcvdPk:sum(packetBytes) 	686400
attr interpolationmode  none
attr source  rcvdPk
attr title  "packets received, sum(packetBytes)"
scalar scenarioPRJP1.node[67].udp 	sentPk:count 	5015
attr interpolationmode  none
attr source  sentPk
attr title  "packets sent, count"
scalar scenarioPRJP1.node[67].udp 	sentPk:sum(packetBytes) 	2607800
attr interpolationmode  none
attr source  sentPk
attr title  "packets sent, sum(packetBytes)"
scalar scenarioPRJP1.node[67].networkLayer.arp 	failedARPResolution:count 	20
attr title  "ARP failed resolutions, count"
scalar scenarioPRJP1.node[67].networkLayer.arp 	completedARPResolution:count 	1533
attr title  "ARP completed resolutions, count"
scalar scenarioPRJP1.node[67].networkLayer.arp 	initiatedARPResolution:count 	159
attr title  "ARP initiated resolutions, count"
scalar scenarioPRJP1.node[67].networkLayer.arp 	sentReply:count 	120
attr title  "ARP replies sent, count"
scalar scenarioPRJP1.node[67].networkLayer.arp 	sentReq:count 	282
attr title  "ARP request sent, count"
scalar scenarioPRJP1.node[67].mobility 	startTime 	7.3
scalar scenarioPRJP1.node[67].mobility 	totalTime 	1871.8
scalar scenarioPRJP1.node[67].mobility 	stopTime 	1879.2
scalar scenarioPRJP1.node[67].mobility 	minSpeed 	2.4755140697224e-13
scalar scenarioPRJP1.node[67].mobility 	maxSpeed 	19.721397994129
scalar scenarioPRJP1.node[67].mobility 	totalDistance 	19754.612111608
scalar scenarioPRJP1.node[67].mobility 	totalCO2Emission 	5599.2369430983
scalar scenarioPRJP1.node[67].wlan.mgmt 	dataQueueLen:max 	42
attr interpolationmode  sample-hold
attr title  "data queue length, max"
scalar scenarioPRJP1.node[67].wlan.mgmt 	dataQueueLen:timeavg 	0.0016009607475944
attr interpolationmode  sample-hold
attr title  "data queue length, timeavg"
scalar scenarioPRJP1.node[67].wlan.mgmt 	dropPkByQueue:count 	0
attr interpolationmode  none
attr source  dropPkByQueue
attr title  "packets dropped by queue, count"
scalar scenarioPRJP1.node[67].wlan.mgmt 	dropPkByQueue:sum(packetBytes) 	0
attr interpolationmode  none
attr source  dropPkByQueue
attr title  "packets dropped by queue, sum(packetBytes)"
scalar scenarioPRJP1.node[67].wlan.mac 	"number of received packets" 	7832
scalar scenarioPRJP1.node[67].wlan.mac 	"number of collisions" 	128083
scalar scenarioPRJP1.node[67].wlan.mac 	"number of internal collisions" 	0
scalar scenarioPRJP1.node[67].wlan.mac 	"number of retry for AC 0" 	19639
scalar scenarioPRJP1.node[67].wlan.mac 	"number of retry for AC 1" 	2
scalar scenarioPRJP1.node[67].wlan.mac 	"number of retry for AC 2" 	0
scalar scenarioPRJP1.node[67].wlan.mac 	"number of retry for AC 3" 	0
scalar scenarioPRJP1.node[67].wlan.mac 	"sent and received bits" 	73163288
scalar scenarioPRJP1.node[67].wlan.mac 	"sent packet within AC 0" 	7508
scalar scenarioPRJP1.node[67].wlan.mac 	"sent packet within AC 1" 	9
scalar scenarioPRJP1.node[67].wlan.mac 	"sent packet within AC 2" 	0
scalar scenarioPRJP1.node[67].wlan.mac 	"sent packet within AC 3" 	0
scalar scenarioPRJP1.node[67].wlan.mac 	"sent in TXOP " 	0
scalar scenarioPRJP1.node[67].wlan.mac 	"sentWithoutRetry AC 0" 	5046
scalar scenarioPRJP1.node[67].wlan.mac 	"sentWithoutRetry AC 1" 	8
scalar scenarioPRJP1.node[67].wlan.mac 	"sentWithoutRetry AC 2" 	0
scalar scenarioPRJP1.node[67].wlan.mac 	"sentWithoutRetry AC 3" 	0
scalar scenarioPRJP1.node[67].wlan.mac 	"numGivenUp AC 0" 	2164
scalar scenarioPRJP1.node[67].wlan.mac 	"numGivenUp AC 1" 	0
scalar scenarioPRJP1.node[67].wlan.mac 	"numGivenUp AC 2" 	0
scalar scenarioPRJP1.node[67].wlan.mac 	"numGivenUp AC 3" 	0
scalar scenarioPRJP1.node[67].wlan.mac 	"numDropped AC 0" 	19
scalar scenarioPRJP1.node[67].wlan.mac 	"numDropped AC 1" 	0
scalar scenarioPRJP1.node[67].wlan.mac 	"numDropped AC 2" 	0
scalar scenarioPRJP1.node[67].wlan.mac 	"numDropped AC 3" 	0
scalar scenarioPRJP1.node[67].wlan.mac 	rcvdPkFromLL:count 	393264
attr interpolationmode  none
attr source  packetReceivedFromLower
attr title  "packets received from lower layer, count"
scalar scenarioPRJP1.node[67].wlan.mac 	rcvdPkFromLL:sum(packetBytes) 	131583307
attr interpolationmode  none
attr source  packetReceivedFromLower
attr title  "packets received from lower layer, sum(packetBytes)"
scalar scenarioPRJP1.node[67].wlan.mac 	sentDownPk:count 	66470
attr interpolationmode  none
attr source  packetSentToLower
attr title  "packets sent to lower layer, count"
scalar scenarioPRJP1.node[67].wlan.mac 	sentDownPk:sum(packetBytes) 	21619521
attr interpolationmode  none
attr source  packetSentToLower
attr title  "packets sent to lower layer, sum(packetBytes)"
scalar scenarioPRJP1.node[67].wlan.mac 	rcvdPkFromHL:count 	39016
attr interpolationmode  none
attr source  packetReceivedFromUpper
attr title  "packets received from higher layer, count"
scalar scenarioPRJP1.node[67].wlan.mac 	rcvdPkFromHL:sum(packetBytes) 	10385949
attr interpolationmode  none
attr source  packetReceivedFromUpper
attr title  "packets received from higher layer, sum(packetBytes)"
scalar scenarioPRJP1.node[67].wlan.mac 	passedUpPk:count 	125067
attr interpolationmode  none
attr source  packetSentToUpper
attr title  "packets passed to higher layer, count"
scalar scenarioPRJP1.node[67].wlan.mac 	passedUpPk:sum(packetBytes) 	23836274
attr interpolationmode  none
attr source  packetSentToUpper
[...]
field count 1
field mean 3
field stddev -nan
field sum 3
field sqrsum 9
field min 3
field max 3
attr interpolationmode  sample-hold
attr source  radioChannelChanged
attr title  "Radio channel, histogram"
bin	-INF	0
bin	2	0
bin	3	1
bin	4	0
scalar scenarioPRJP1.node[59].wlan.radio 	transmissionState:count 	257248
attr interpolationmode  sample-hold
attr source  transmissionStateChanged
attr title  "Radio transmission state, count"
scalar scenarioPRJP1.node[59].wlan.radio 	receptionState:count 	1656394
attr interpolationmode  sample-hold
attr source  receptionStateChanged
attr title  "Radio reception state, count"
scalar scenarioPRJP1.node[59].wlan.radio 	radioMode:count 	128626
attr interpolationmode  sample-hold
attr source  radioModeChanged
attr title  "Radio mode, count"
statistic scenarioPRJP1.node[59].wlan.radio 	symbolErrorRate:histogram
field count 0
field mean -nan
field stddev -nan
field sum 0
field sqrsum 0
field min -nan
field max -nan
attr source  symbolErrorRate
attr title  "Symbol error rate, histogram"
bin	-INF	0
bin	-0.5	0
bin	-0.46666666666667	0
bin	-0.43333333333333	0
bin	-0.4	0
bin	-0.36666666666667	0
bin	-0.33333333333333	0
bin	-0.3	0
bin	-0.26666666666667	0
bin	-0.23333333333333	0
bin	-0.2	0
bin	-0.16666666666667	0
bin	-0.13333333333333	0
bin	-0.1	0
bin	-0.066666666666667	0
bin	-0.033333333333333	0
bin	0	0
bin	0.033333333333333	0
bin	0.066666666666667	0
bin	0.1	0
bin	0.13333333333333	0
bin	0.16666666666667	0
bin	0.2	0
bin	0.23333333333333	0
bin	0.26666666666667	0
bin	0.3	0
bin	0.33333333333333	0
bin	0.36666666666667	0
bin	0.4	0
bin	0.43333333333333	0
bin	0.46666666666667	0
bin	0.5	0
statistic scenarioPRJP1.node[59].wlan.radio 	bitErrorRate:histogram
field count 0
field mean -nan
field stddev -nan
field sum 0
field sqrsum 0
field min -nan
field max -nan
attr source  bitErrorRate
attr title  "Bit error rate, histogram"
bin	-INF	0
bin	-0.5	0
bin	-0.46666666666667	0
bin	-0.43333333333333	0
bin	-0.4	0
bin	-0.36666666666667	0
bin	-0.33333333333333	0
bin	-0.3	0
bin	-0.26666666666667	0
bin	-0.23333333333333	0
bin	-0.2	0
bin	-0.16666666666667	0
bin	-0.13333333333333	0
bin	-0.1	0
bin	-0.066666666666667	0
bin	-0.033333333333333	0
bin	0	0
bin	0.033333333333333	0
bin	0.066666666666667	0
bin	0.1	0
bin	0.13333333333333	0
bin	0.16666666666667	0
bin	0.2	0
bin	0.23333333333333	0
bin	0.26666666666667	0
bin	0.3	0
bin	0.33333333333333	0
bin	0.36666666666667	0
bin	0.4	0
bin	0.43333333333333	0
bin	0.46666666666667	0
bin	0.5	0
statistic scenarioPRJP1.node[59].wlan.radio 	packetErrorRate:histogram
field count 394272
field mean 0.2922722901807
field stddev 0.44370265605226
field sum 115234.78039413
field sqrsum 111300.8720122
field min 0
field max 1
attr source  packetErrorRate
attr title  "Packet error rate, histogram"
bin	-INF	0
bin	-1.0932920873064e-06	0
bin	-9.4751980899884e-07	0
bin	-8.0174753069133e-07	0
bin	-6.5597525238381e-07	0
bin	-5.102029740763e-07	0
bin	-3.6443069576878e-07	0
bin	-2.1865841746127e-07	0
bin	-7.2886139153757e-08	210820
bin	7.2886139153757e-08	3117
bin	2.1865841746127e-07	1448
bin	3.6443069576878e-07	1020
bin	5.102029740763e-07	745
bin	6.5597525238381e-07	633
bin	8.0174753069132e-07	536
bin	9.4751980899884e-07	452
bin	1.0932920873064e-06	411
bin	1.2390643656139e-06	339
bin	1.3848366439214e-06	311
bin	1.5306089222289e-06	301
bin	1.6763812005364e-06	249
bin	1.8221534788439e-06	260
bin	1.9679257571514e-06	255
bin	2.1136980354589e-06	223
bin	2.2594703137665e-06	171
bin	2.405242592074e-06	238
bin	2.5510148703815e-06	204
bin	2.696787148689e-06	152
bin	2.8425594269965e-06	166
bin	2.988331705304e-06	158
bin	3.1341039836115e-06	127
bin	3.2798762619191e-06	171936
statistic scenarioPRJP1.node[59].wlan.radio 	minSNIR:histogram
field count 394272
field mean 5383.7992073804
field stddev 98464.392657731
field sum 2122681281.0923
field sqrsum 3.8339787277767e+15
field min 8.8235155184743e-05
field max 8225851.3653975
attr source  minSNIR
attr title  "Min SNIR, histogram"
bin	-INF	0
bin	-1368032.7666365	0
bin	-1185627.8691744	0
bin	-1003222.9717123	0
bin	-820818.0742502	0
bin	-638413.17678809	0
bin	-456008.27932599	0
bin	-273603.38186388	0
bin	-91198.484401776	392274
bin	91206.41306033	827
bin	273611.31052244	177
bin	456016.20798454	243
bin	638421.10544665	298
bin	820826.00290875	27
bin	1003230.9003709	13
bin	1185635.797833	10
bin	1368040.6952951	8
bin	1550445.5927572	6
bin	1732850.4902193	5
bin	1915255.3876814	7
bin	2097660.2851435	14
bin	2280065.1826056	11
bin	2462470.0800677	15
bin	2644874.9775298	32
bin	2827279.8749919	49
bin	3009684.772454	251
bin	3192089.6699161	0
bin	3374494.5673782	0
bin	3556899.4648403	0
bin	3739304.3623024	0
bin	3921709.2597645	0
bin	4104114.1572266	5
scalar scenarioPRJP1.node[59].lo0.lo 	droppedPkBitError:count 	0
attr interpolationmode  none
attr source  dropPkBitError
attr title  "packets dropped/bit error, count"
scalar scenarioPRJP1.node[59].lo0.lo 	droppedPkBitError:sum(packetBytes) 	0
attr interpolationmode  none
attr source  dropPkBitError
attr title  "packets dropped/bit error, sum(packetBytes)"
scalar scenarioPRJP1.node[59].lo0.lo 	rcvdPkFromHL:count 	0
attr interpolationmode  none
attr source  packetReceivedFromUpper
attr title  "packets received from higher layer, count"
scalar scenarioPRJP1.node[59].lo0.lo 	rcvdPkFromHL:sum(packetBytes) 	0
attr interpolationmode  none
attr source  packetReceivedFromUpper
attr title  "packets received from higher layer, sum(packetBytes)"
scalar scenarioPRJP1.node[59].lo0.lo 	passedUpPk:count 	0
attr interpolationmode  none
attr source  packetSentToUpper
attr title  "packets passed to higher layer, count"
scalar scenarioPRJP1.node[59].lo0.lo 	passedUpPk:sum(packetBytes) 	0
attr interpolationmode  none
attr source  packetSentToUpper
attr title  "packets passed to higher layer, sum(packetBytes)"
scalar scenarioPRJP1.node[74].app 	"Total sent" 	5018
scalar scenarioPRJP1.node[74].app 	"Total received" 	1104
scalar scenarioPRJP1.node[74].app 	"Total deleted" 	185
scalar scenarioPRJP1.node[74].app 	dropPk:count 	185
attr interpolationmode  none
attr source  dropPk
attr title  "packets dropped, count"
scalar scenarioPRJP1.node[74].app 	dropPk:sum(packetBytes) 	94720
attr interpolationmode  none
attr source  dropPk
attr title  "packets dropped, sum(packetBytes)"
scalar scenarioPRJP1.node[74].app 	outOfOrderPk:count 	1
attr interpolationmode  none
attr source  outOfOrderPk
attr title  "packets received out of order, count"
scalar scenarioPRJP1.node[74].app 	outOfOrderPk:sum(packetBytes) 	512
attr interpolationmode  none
attr source  outOfOrderPk
attr title  "packets received out of order, sum(packetBytes)"
scalar scenarioPRJP1.node[74].app 	rcvdPk:count 	1104
attr interpolationmode  none
attr source  rcvdPk
attr title  "packets received, count"
scalar scenarioPRJP1.node[74].app 	rcvdPk:sum(packetBytes) 	565248
attr interpolationmode  none
attr source  rcvdPk
attr title  "packets received, sum(packetBytes)"
statistic scenarioPRJP1.node[74].app 	endToEndDelay:histogram
field count 1104
field mean 4.2972816084006
field stddev 5.5394028825156
field sum 4744.1988956743
field sqrsum 54232.696338164
field min 0.000880829921
field max 19.852607491128
attr interpolationmode  none
attr source  messageAge(rcvdPk)
attr title  "delay, histogram"
attr unit  s
bin	-INF	0
bin	-9.8441030696335	0
bin	-8.5314347921274	0
bin	-7.2187665146214	0
bin	-5.9060982371153	0
bin	-4.5934299596092	0
bin	-3.2807616821032	0
bin	-1.9680934045971	0
bin	-0.65542512709103	494
bin	0.65724315041503	106
bin	1.9699114279211	65
bin	3.2825797054272	50
bin	4.5952479829332	61
bin	5.9079162604393	46
bin	7.2205845379454	36
bin	8.5332528154514	43
bin	9.8459210929575	39
bin	11.158589370464	26
bin	12.47125764797	30
bin	13.783925925476	29
bin	15.096594202982	23
bin	16.409262480488	24
bin	17.721930757994	18
bin	19.0345990355	14
bin	20.347267313006	0
bin	21.659935590512	0
bin	22.972603868018	0
bin	24.285272145524	0
bin	25.59794042303	0
bin	26.910608700536	0
bin	28.223276978042	0
bin	29.535945255549	0
scalar scenarioPRJP1.node[74].app 	sentPk:count 	5018
attr interpolationmode  none
attr source  sentPk
attr title  "packets sent, count"
scalar scenarioPRJP1.node[74].app 	sentPk:sum(packetBytes) 	2569216
attr interpolationmode  none
attr source  sentPk
attr title  "packets sent, sum(packetBytes)"
scalar scenarioPRJP1.node[74].udp 	droppedPkBadChecksum:count 	0
attr interpolationmode  none
attr title  "packets dropped (checksum error), count"
scalar scenarioPRJP1.node[74].udp 	droppedPkWrongPort:count 	14
attr interpolationmode  none
attr title  "packets dropped (wrong port), count"
scalar scenarioPRJP1.node[74].udp 	passedUpPk:count 	1290
attr interpolationmode  none
attr title  "packets passed up, count"
scalar scenarioPRJP1.node[74].udp 	rcvdPk:count 	1304
attr interpolationmode  none
attr source  rcvdPk
attr title  "packets received, count"
scalar scenarioPRJP1.node[74].udp 	rcvdPk:sum(packetBytes) 	678080
attr interpolationmode  none
attr source  rcvdPk
attr title  "packets received, sum(packetBytes)"
scalar scenarioPRJP1.node[74].udp 	sentPk:count 	5018
attr interpolationmode  none
attr source  sentPk
attr title  "packets sent, count"
scalar scenarioPRJP1.node[74].udp 	sentPk:sum(packetBytes) 	2609360
attr interpolationmode  none
attr source  sentPk
attr title  "packets sent, sum(packetBytes)"
scalar scenarioPRJP1.node[74].networkLayer.arp 	failedARPResolution:count 	22
attr title  "ARP failed resolutions, count"
scalar scenarioPRJP1.node[74].networkLayer.arp 	completedARPResolution:count 	1454
attr title  "ARP completed resolutions, count"
scalar scenarioPRJP1.node[74].networkLayer.arp 	initiatedARPResolution:count 	141
attr title  "ARP initiated resolutions, count"
scalar scenarioPRJP1.node[74].networkLayer.arp 	sentReply:count 	112
attr title  "ARP replies sent, count"
scalar scenarioPRJP1.node[74].networkLayer.arp 	sentReq:count 	240
attr title  "ARP request sent, count"
scalar scenarioPRJP1.node[74].mobility 	startTime 	7.4
scalar scenarioPRJP1.node[74].mobility 	totalTime 	1892.6
scalar scenarioPRJP1.node[74].mobility 	stopTime 	1900
scalar scenarioPRJP1.node[74].mobility 	minSpeed 	2.4754239487204e-13
scalar scenarioPRJP1.node[74].mobility 	maxSpeed 	18.958748013231
scalar scenarioPRJP1.node[74].mobility 	totalDistance 	18742.777837448
scalar scenarioPRJP1.node[74].mobility 	totalCO2Emission 	5205.8103458898
scalar scenarioPRJP1.node[74].wlan.mgmt 	dataQueueLen:max 	89
attr interpolationmode  sample-hold
attr title  "data queue length, max"
scalar scenarioPRJP1.node[74].wlan.mgmt 	dataQueueLen:timeavg 	0.0021246976105632
attr interpolationmode  sample-hold
attr title  "data queue length, timeavg"
scalar scenarioPRJP1.node[74].wlan.mgmt 	dropPkByQueue:count 	0
attr interpolationmode  none
attr source  dropPkByQueue
attr title  "packets dropped by queue, count"
scalar scenarioPRJP1.node[74].wlan.mgmt 	dropPkByQueue:sum(packetBytes) 	0
attr interpolationmode  none
attr source  dropPkByQueue
attr title  "packets dropped by queue, sum(packetBytes)"
scalar scenarioPRJP1.node[74].wlan.mac 	"number of received packets" 	7366
scalar scenarioPRJP1.node[74].wlan.mac 	"number of collisions" 	112945
scalar scenarioPRJP1.node[74].wlan.mac 	"number of internal collisions" 	0
scalar scenarioPRJP1.node[74].wlan.mac 	"number of retry for AC 0" 	18216
scalar scenarioPRJP1.node[74].wlan.mac 	"number of retry for AC 1" 	22
scalar scenarioPRJP1.node[74].wlan.mac 	"number of retry for AC 2" 	0
scalar scenarioPRJP1.node[74].wlan.mac 	"number of retry for AC 3" 	0
scalar scenarioPRJP1.node[74].wlan.mac 	"sent and received bits" 	68493416
scalar scenarioPRJP1.node[74].wlan.mac 	"sent packet within AC 0" 	7085
scalar scenarioPRJP1.node[74].wlan.mac 	"sent packet within AC 1" 	47
scalar scenarioPRJP1.node[74].wlan.mac 	"sent packet within AC 2" 	0
scalar scenarioPRJP1.node[74].wlan.mac 	"sent packet within AC 3" 	0
scalar scenarioPRJP1.node[74].wlan.mac 	"sent in TXOP " 	0
scalar scenarioPRJP1.node[74].wlan.mac 	"sentWithoutRetry AC 0" 	4723
scalar scenarioPRJP1.node[74].wlan.mac 	"sentWithoutRetry AC 1" 	37
scalar scenarioPRJP1.node[74].wlan.mac 	"sentWithoutRetry AC 2" 	0
scalar scenarioPRJP1.node[74].wlan.mac 	"sentWithoutRetry AC 3" 	0
scalar scenarioPRJP1.node[74].wlan.mac 	"numGivenUp AC 0" 	1901
scalar scenarioPRJP1.node[74].wlan.mac 	"numGivenUp AC 1" 	0
scalar scenarioPRJP1.node[74].wlan.mac 	"numGivenUp AC 2" 	0
scalar scenarioPRJP1.node[74].wlan.mac 	"numGivenUp AC 3" 	0
scalar scenarioPRJP1.node[74].wlan.mac 	"numDropped AC 0" 	42
scalar scenarioPRJP1.node[74].wlan.mac 	"numDropped AC 1" 	0
scalar scenarioPRJP1.node[74].wlan.mac 	"numDropped AC 2" 	0
scalar scenarioPRJP1.node[74].wlan.mac 	"numDropped AC 3" 	0
scalar scenarioPRJP1.node[74].wlan.mac 	rcvdPkFromLL:count 	358916
attr interpolationmode  none
attr source  packetReceivedFromLower
attr title  "packets received from lower layer, count"
scalar scenarioPRJP1.node[74].wlan.mac 	rcvdPkFromLL:sum(packetBytes) 	118838007
attr interpolationmode  none
attr source  packetReceivedFromLower
attr title  "packets received from lower layer, sum(packetBytes)"
scalar scenarioPRJP1.node[74].wlan.mac 	sentDownPk:count 	63114
attr interpolationmode  none
attr source  packetSentToLower
attr title  "packets sent to lower layer, count"
scalar scenarioPRJP1.node[74].wlan.mac 	sentDownPk:sum(packetBytes) 	20053721
attr interpolationmode  none
attr source  packetSentToLower
attr title  "packets sent to lower layer, sum(packetBytes)"
scalar scenarioPRJP1.node[74].wlan.mac 	rcvdPkFromHL:count 	37552
attr interpolationmode  none
attr source  packetReceivedFromUpper
attr title  "packets received from higher layer, count"
scalar scenarioPRJP1.node[74].wlan.mac 	rcvdPkFromHL:sum(packetBytes) 	9660042
attr interpolationmode  none
attr source  packetReceivedFromUpper
attr title  "packets received from higher layer, sum(packetBytes)"
scalar scenarioPRJP1.node[74].wlan.mac 	passedUpPk:count 	114418
attr interpolationmode  none
attr source  packetSentToUpper
attr title  "packets passed to higher layer, count"
scalar scenarioPRJP1.node[74].wlan.mac 	passedUpPk:sum(packetBytes) 	21462074
attr interpolationmode  none
attr source  packetSentToUpper
attr title  "packets passed to higher layer, sum(packetBytes)"
statistic scenarioPRJP1.node[74].wlan.radio 	radioChannel:histogram
field count 1
field mean 3
field stddev -nan
field sum 3
field sqrsum 9
field min 3
field max 3
attr interpolationmode  sample-hold
attr source  radioChannelChanged
attr title  "Radio channel, histogram"
bin	-INF	0
bin	2	0
bin	3	1
bin	4	0
scalar scenarioPRJP1.node[74].wlan.radio 	transmissionState:count 	252456
attr interpolationmode  sample-hold
attr source  transmissionStateChanged
attr title  "Radio transmission state, count"
scalar scenarioPRJP1.node[74].wlan.radio 	receptionState:count 	1723289
attr interpolationmode  sample-hold
attr source  receptionStateChanged
attr title  "Radio reception state, count"
scalar scenarioPRJP1.node[74].wlan.radio 	radioMode:count 	126230
attr interpolationmode  sample-hold
attr source  radioModeChanged
attr title  "Radio mode, count"
statistic scenarioPRJP1.node[74].wlan.radio 	symbolErrorRate:histogram
field count 0
field mean -nan
field stddev -nan
field sum 0
field sqrsum 0
field min -nan
field max -nan
attr source  symbolErrorRate
attr title  "Symbol error rate, histogram"
bin	-INF	0
bin	-0.5	0
bin	-0.46666666666667	0
bin	-0.43333333333333	0
bin	-0.4	0
bin	-0.36666666666667	0
bin	-0.33333333333333	0
bin	-0.3	0
bin	-0.26666666666667	0
bin	-0.23333333333333	0
bin	-0.2	0
bin	-0.16666666666667	0
bin	-0.13333333333333	0
bin	-0.1	0
bin	-0.066666666666667	0
bin	-0.033333333333333	0
bin	0	0
bin	0.033333333333333	0
bin	0.066666666666667	0
bin	0.1	0
bin	0.13333333333333	0
bin	0.16666666666667	0
bin	0.2	0
bin	0.23333333333333	0
bin	0.26666666666667	0
bin	0.3	0
bin	0.33333333333333	0
bin	0.36666666666667	0
bin	0.4	0
bin	0.43333333333333	0
bin	0.46666666666667	0
bin	0.5	0
statistic scenarioPRJP1.node[74].wlan.radio 	bitErrorRate:histogram
field count 0
field mean -nan
field stddev -nan
field sum 0
field sqrsum 0
field min -nan
field max -nan
attr source  bitErrorRate
attr title  "Bit error rate, histogram"
bin	-INF	0
bin	-0.5	0
bin	-0.46666666666667	0
bin	-0.43333333333333	0
bin	-0.4	0
bin	-0.36666666666667	0
bin	-0.33333333333333	0
bin	-0.3	0
bin	-0.26666666666667	0
bin	-0.23333333333333	0
bin	-0.2	0
bin	-0.16666666666667	0
bin	-0.13333333333333	0
bin	-0.1	0
bin	-0.066666666666667	0
bin	-0.033333333333333	0
bin	0	0
bin	0.033333333333333	0
bin	0.066666666666667	0
bin	0.1	0
bin	0.13333333333333	0
bin	0.16666666666667	0
bin	0.2	0
bin	0.23333333333333	0
bin	0.26666666666667	0
bin	0.3	0
bin	0.33333333333333	0
bin	0.36666666666667	0
bin	0.4	0
bin	0.43333333333333	0
bin	0.46666666666667	0
bin	0.5	0
statistic scenarioPRJP1.node[74].wlan.radio 	packetErrorRate:histogram
field count 358916
field mean 0.28522674981064
field stddev 0.43988200454038
field sum 102372.44413504
field sqrsum 98648.040208412
field min 0
field max 1
attr source  packetErrorRate
attr title  "Packet error rate, histogram"
bin	-INF	0
bin	-0.1813178516081	0
bin	-0.15714213806036	0
bin	-0.13296642451261	0
bin	-0.10879071096486	0
bin	-0.084614997417115	0
bin	-0.060439283869368	0
bin	-0.036263570321621	0
bin	-0.012087856773874	236095
bin	0.012087856773874	5668
bin	0.036263570321621	2768
bin	0.060439283869368	1915
bin	0.084614997417115	1494
bin	0.10879071096486	1140
bin	0.13296642451261	1019
bin	0.15714213806036	871
bin	0.1813178516081	747
bin	0.20549356515585	684
bin	0.2296692787036	658
bin	0.25384499225135	542
bin	0.27802070579909	534
bin	0.30219641934684	504
bin	0.32637213289459	486
bin	0.35054784644233	492
bin	0.37472355999008	448
bin	0.39889927353783	405
bin	0.42307498708558	413
bin	0.44725070063332	399
bin	0.47142641418107	394
bin	0.49560212772882	361
bin	0.51977784127656	401
bin	0.54395355482431	100478
statistic scenarioPRJP1.node[74].wlan.radio 	minSNIR:histogram
field count 358916
field mean 5425.3114714683
field stddev 97777.614075014
field sum 1947231092.0935
field sqrsum 3.441957487226e+15
field min 0.00010600958793003
field max 9027116.4534774
attr source  minSNIR
attr title  "Min SNIR, histogram"
bin	-INF	0
bin	-1368033.3466443	0
bin	-1185628.4234041	0
bin	-1003223.5001638	0
bin	-820818.5769236	0
bin	-638413.65368338	0
bin	-456008.73044315	0
bin	-273603.80720292	0
bin	-91198.883962689	357124
bin	91206.03927754	629
bin	273610.96251777	138
bin	456015.885758	324
bin	638420.80899823	244
bin	820825.73223846	5
bin	1003230.6554787	8
bin	1185635.5787189	26
bin	1368040.5019591	27
bin	1550445.4251994	26
bin	1732850.3484396	51
bin	1915255.2716798	11
bin	2097660.1949201	13
bin	2280065.1181603	9
bin	2462470.0414005	7
bin	2644874.9646407	6
bin	2827279.887881	45
bin	3009684.8111212	219
bin	3192089.7343614	0
bin	3374494.6576017	0
bin	3556899.5808419	0
bin	3739304.5040821	0
bin	3921709.4273223	0
bin	4104114.3505626	4
scalar scenarioPRJP1.node[74].lo0.lo 	droppedPkBitError:count 	0
attr interpolationmode  none
attr source  dropPkBitError
attr title  "packets dropped/bit error, count"
scalar scenarioPRJP1.node[74].lo0.lo 	droppedPkBitError:sum(packetBytes) 	0
attr interpolationmode  none
attr source  dropPkBitError
attr title  "packets dropped/bit error, sum(packetBytes)"
scalar scenarioPRJP1.node[74].lo0.lo 	rcvdPkFromHL:count 	0
attr interpolationmode  none
attr source  packetReceivedFromUpper
attr title  "packets received from higher layer, count"
scalar scenarioPRJP1.node[74].lo0.lo 	rcvdPkFromHL:sum(packetBytes) 	0
attr interpolationmode  none
attr source  packetReceivedFromUpper
attr title  "packets received from higher layer, sum(packetBytes)"
scalar scenarioPRJP1.node[74].lo0.lo 	passedUpPk:count 	0
attr interpolationmode  none
attr source  packetSentToUpper
attr title  "packets passed to higher layer, count"
scalar scenarioPRJP1.node[74].lo0.lo 	passedUpPk:sum(packetBytes) 	0
attr interpolationmode  none
attr source  packetSentToUpper
attr title  "packets passed to higher layer, sum(packetBytes)"
