version 2
run DSRUU-FS-100n-14-20150820-13:12:26-21544
attr configname DSRUU-FS-100n
attr datetime 20150820-13:12:26
attr experiment DSRUU-FS-100n
attr inifile omnetpp.ini
attr iterationvars ""
attr iterationvars2 $repetition=14
attr measurement ""
attr network Prj_Part1_propag.scenarioPRJP1
attr processid 21544
attr repetition 14
attr replication #14
attr resultdir results
attr runnumber 14
attr seedset 14

scalar scenarioPRJP1.radioMedium.propagation 	"Arrival computation count" 	570528288
scalar scenarioPRJP1.radioMedium 	"transmission count" 	5762912
scalar scenarioPRJP1.radioMedium 	"radio frame send count" 	570528288
scalar scenarioPRJP1.radioMedium 	"reception computation count" 	562884097
scalar scenarioPRJP1.radioMedium 	"interference computation count" 	1366010448
scalar scenarioPRJP1.radioMedium 	"reception decision computation count" 	34520315
scalar scenarioPRJP1.radioMedium 	"listening decision computation count" 	787159843
scalar scenarioPRJP1.radioMedium 	"reception cache hit" 	92.091507160847
attr unit  %
scalar scenarioPRJP1.radioMedium 	"interference cache hit" 	50
attr unit  %
scalar scenarioPRJP1.radioMedium 	"noise cache hit" 	0
attr unit  %
scalar scenarioPRJP1.radioMedium 	"snir cache hit" 	0
attr unit  %
scalar scenarioPRJP1.radioMedium 	"reception decision cache hit" 	0
attr unit  %
scalar scenarioPRJP1.node[0].app 	"Total sent" 	2611
scalar scenarioPRJP1.node[0].app 	"Total received" 	107
scalar scenarioPRJP1.node[0].app 	"Total deleted" 	2
scalar scenarioPRJP1.node[0].app 	dropPk:count 	2
attr interpolationmode  none
attr source  dropPk
attr title  "packets dropped, count"
scalar scenarioPRJP1.node[0].app 	dropPk:sum(packetBytes) 	1024
attr interpolationmode  none
attr source  dropPk
attr title  "packets dropped, sum(packetBytes)"
scalar scenarioPRJP1.node[0].app 	outOfOrderPk:count 	5
attr interpolationmode  none
attr source  outOfOrderPk
attr title  "packets received out of order, count"
scalar scenarioPRJP1.node[0].app 	outOfOrderPk:sum(packetBytes) 	2560
attr interpolationmode  none
attr source  outOfOrderPk
attr title  "packets received out of order, sum(packetBytes)"
scalar scenarioPRJP1.node[0].app 	rcvdPk:count 	107
attr interpolationmode  none
attr source  rcvdPk
attr title  "packets received, count"
scalar scenarioPRJP1.node[0].app 	rcvdPk:sum(packetBytes) 	54784
attr interpolationmode  none
attr source  rcvdPk
attr title  "packets received, sum(packetBytes)"
statistic scenarioPRJP1.node[0].app 	endToEndDelay:histogram
field count 107
field mean 0.93194225156069
field stddev 2.6500361596051
field sum 99.717820916994
field sqrsum 837.33656515084
field min 0.001094175672
field max 18.088930840609
attr interpolationmode  none
attr source  messageAge(rcvdPk)
attr title  "delay, histogram"
attr unit  s
bin	-INF	0
bin	-9.0428241567965	0
bin	-7.836968379134	0
bin	-6.6311126014716	0
bin	-5.4252568238091	0
bin	-4.2194010461466	0
bin	-3.0135452684842	0
bin	-1.8076894908217	0
bin	-0.60183371315923	77
bin	0.60402206450324	20
bin	1.8098778421657	3
bin	3.0157336198282	2
bin	4.2215893974906	1
bin	5.4274451751531	0
bin	6.6333009528156	1
bin	7.839156730478	0
bin	9.0450125081405	0
bin	10.250868285803	0
bin	11.456724063465	1
bin	12.662579841128	0
bin	13.86843561879	1
bin	15.074291396453	0
bin	16.280147174115	0
bin	17.486002951778	1
bin	18.69185872944	0
bin	19.897714507103	0
bin	21.103570284765	0
bin	22.309426062428	0
bin	23.51528184009	0
bin	24.721137617753	0
bin	25.926993395415	0
bin	27.132849173077	0
scalar scenarioPRJP1.node[0].app 	sentPk:count 	2611
attr interpolationmode  none
attr source  sentPk
attr title  "packets sent, count"
scalar scenarioPRJP1.node[0].app 	sentPk:sum(packetBytes) 	1336832
attr interpolationmode  none
attr source  sentPk
attr title  "packets sent, sum(packetBytes)"
scalar scenarioPRJP1.node[0].udp 	droppedPkBadChecksum:count 	0
attr interpolationmode  none
attr title  "packets dropped (checksum error), count"
scalar scenarioPRJP1.node[0].udp 	droppedPkWrongPort:count 	0
attr interpolationmode  none
attr title  "packets dropped (wrong port), count"
scalar scenarioPRJP1.node[0].udp 	passedUpPk:count 	114
attr interpolationmode  none
attr title  "packets passed up, count"
scalar scenarioPRJP1.node[0].udp 	rcvdPk:count 	114
attr interpolationmode  none
attr source  rcvdPk
attr title  "packets received, count"
scalar scenarioPRJP1.node[0].udp 	rcvdPk:sum(packetBytes) 	59280
attr interpolationmode  none
attr source  rcvdPk
attr title  "packets received, sum(packetBytes)"
scalar scenarioPRJP1.node[0].udp 	sentPk:count 	2611
attr interpolationmode  none
attr source  sentPk
attr title  "packets sent, count"
scalar scenarioPRJP1.node[0].udp 	sentPk:sum(packetBytes) 	1357720
attr interpolationmode  none
attr source  sentPk
attr title  "packets sent, sum(packetBytes)"
scalar scenarioPRJP1.node[0].networkLayer.arp 	failedARPResolution:count 	165
attr title  "ARP failed resolutions, count"
scalar scenarioPRJP1.node[0].networkLayer.arp 	completedARPResolution:count 	2010
attr title  "ARP completed resolutions, count"
scalar scenarioPRJP1.node[0].networkLayer.arp 	initiatedARPResolution:count 	261
attr title  "ARP initiated resolutions, count"
scalar scenarioPRJP1.node[0].networkLayer.arp 	sentReply:count 	57
attr title  "ARP replies sent, count"
scalar scenarioPRJP1.node[0].networkLayer.arp 	sentReq:count 	635
attr title  "ARP request sent, count"
scalar scenarioPRJP1.node[0].mobility 	startTime 	0.1
scalar scenarioPRJP1.node[0].mobility 	totalTime 	949.9
scalar scenarioPRJP1.node[0].mobility 	stopTime 	950
scalar scenarioPRJP1.node[0].mobility 	minSpeed 	2.4757435461299e-13
scalar scenarioPRJP1.node[0].mobility 	maxSpeed 	19.973278579907
scalar scenarioPRJP1.node[0].mobility 	totalDistance 	9957.2596234367
scalar scenarioPRJP1.node[0].mobility 	totalCO2Emission 	2936.7538251609
scalar scenarioPRJP1.node[0].wlan.mgmt 	dataQueueLen:max 	21
attr interpolationmode  sample-hold
attr title  "data queue length, max"
scalar scenarioPRJP1.node[0].wlan.mgmt 	dataQueueLen:timeavg 	0.0049401996061901
attr interpolationmode  sample-hold
attr title  "data queue length, timeavg"
scalar scenarioPRJP1.node[0].wlan.mgmt 	dropPkByQueue:count 	0
attr interpolationmode  none
attr source  dropPkByQueue
attr title  "packets dropped by queue, count"
scalar scenarioPRJP1.node[0].wlan.mgmt 	dropPkByQueue:sum(packetBytes) 	0
attr interpolationmode  none
attr source  dropPkByQueue
attr title  "packets dropped by queue, sum(packetBytes)"
scalar scenarioPRJP1.node[0].wlan.mac 	"number of received packets" 	9411
scalar scenarioPRJP1.node[0].wlan.mac 	"number of collisions" 	95446
scalar scenarioPRJP1.node[0].wlan.mac 	"number of internal collisions" 	0
scalar scenarioPRJP1.node[0].wlan.mac 	"number of retry for AC 0" 	25863
scalar scenarioPRJP1.node[0].wlan.mac 	"number of retry for AC 1" 	0
scalar scenarioPRJP1.node[0].wlan.mac 	"number of retry for AC 2" 	0
scalar scenarioPRJP1.node[0].wlan.mac 	"number of retry for AC 3" 	0
scalar scenarioPRJP1.node[0].wlan.mac 	"sent and received bits" 	17454432
scalar scenarioPRJP1.node[0].wlan.mac 	"sent packet within AC 0" 	5416
scalar scenarioPRJP1.node[0].wlan.mac 	"sent packet within AC 1" 	0
scalar scenarioPRJP1.node[0].wlan.mac 	"sent packet within AC 2" 	0
scalar scenarioPRJP1.node[0].wlan.mac 	"sent packet within AC 3" 	0
scalar scenarioPRJP1.node[0].wlan.mac 	"sent in TXOP " 	0
scalar scenarioPRJP1.node[0].wlan.mac 	"sentWithoutRetry AC 0" 	4771
scalar scenarioPRJP1.node[0].wlan.mac 	"sentWithoutRetry AC 1" 	0
scalar scenarioPRJP1.node[0].wlan.mac 	"sentWithoutRetry AC 2" 	0
scalar scenarioPRJP1.node[0].wlan.mac 	"sentWithoutRetry AC 3" 	0
scalar scenarioPRJP1.node[0].wlan.mac 	"numGivenUp AC 0" 	4052
scalar scenarioPRJP1.node[0].wlan.mac 	"numGivenUp AC 1" 	0
scalar scenarioPRJP1.node[0].wlan.mac 	"numGivenUp AC 2" 	0
scalar scenarioPRJP1.node[0].wlan.mac 	"numGivenUp AC 3" 	0
scalar scenarioPRJP1.node[0].wlan.mac 	"numDropped AC 0" 	48
scalar scenarioPRJP1.node[0].wlan.mac 	"numDropped AC 1" 	0
scalar scenarioPRJP1.node[0].wlan.mac 	"numDropped AC 2" 	0
scalar scenarioPRJP1.node[0].wlan.mac 	"numDropped AC 3" 	0
scalar scenarioPRJP1.node[0].wlan.mac 	rcvdPkFromLL:count 	341692
attr interpolationmode  none
attr source  packetReceivedFromLower
attr title  "packets received from lower layer, count"
scalar scenarioPRJP1.node[0].wlan.mac 	rcvdPkFromLL:sum(packetBytes) 	92298972
attr interpolationmode  none
attr source  packetReceivedFromLower
attr title  "packets received from lower layer, sum(packetBytes)"
scalar scenarioPRJP1.node[0].wlan.mac 	sentDownPk:count 	53891
attr interpolationmode  none
attr source  packetSentToLower
attr title  "packets sent to lower layer, count"
scalar scenarioPRJP1.node[0].wlan.mac 	sentDownPk:sum(packetBytes) 	14435950
attr interpolationmode  none
attr source  packetSentToLower
attr title  "packets sent to lower layer, sum(packetBytes)"
scalar scenarioPRJP1.node[0].wlan.mac 	rcvdPkFromHL:count 	18665
attr interpolationmode  none
attr source  packetReceivedFromUpper
attr title  "packets received from higher layer, count"
scalar scenarioPRJP1.node[0].wlan.mac 	rcvdPkFromHL:sum(packetBytes) 	3827044
attr interpolationmode  none
attr source  packetReceivedFromUpper
attr title  "packets received from higher layer, sum(packetBytes)"
scalar scenarioPRJP1.node[0].wlan.mac 	passedUpPk:count 	39176
attr interpolationmode  none
attr source  packetSentToUpper
attr title  "packets passed to higher layer, count"
scalar scenarioPRJP1.node[0].wlan.mac 	passedUpPk:sum(packetBytes) 	4020044
attr interpolationmode  none
attr source  packetSentToUpper
attr title  "packets passed to higher layer, sum(packetBytes)"
statistic scenarioPRJP1.node[0].wlan.radio 	radioChannel:histogram
field count 1
field mean 3
field stddev nan
field sum 3
field sqrsum 9
field min 3
field max 3
attr interpolationmode  sample-hold
attr source  radioChannelChanged
attr title  "Radio channel, histogram"
bin	-INF	0
bin	2	0
bin	3	1
bin	4	0
scalar scenarioPRJP1.node[0].wlan.radio 	transmissionState:count 	215564
attr interpolationmode  sample-hold
attr source  transmissionStateChanged
attr title  "Radio transmission state, count"
scalar scenarioPRJP1.node[0].wlan.radio 	receptionState:count 	862081
attr interpolationmode  sample-hold
attr source  receptionStateChanged
attr title  "Radio reception state, count"
scalar scenarioPRJP1.node[0].wlan.radio 	radioMode:count 	107784
attr interpolationmode  sample-hold
attr source  radioModeChanged
attr title  "Radio mode, count"
statistic scenarioPRJP1.node[0].wlan.radio 	symbolErrorRate:histogram
field count 0
field mean nan
field stddev nan
field sum 0
field sqrsum 0
field min nan
field max nan
attr source  symbolErrorRate
attr title  "Symbol error rate, histogram"
bin	-INF	0
bin	-0.5	0
bin	-0.46666666666667	0
bin	-0.43333333333333	0
bin	-0.4	0
bin	-0.36666666666667	0
bin	-0.33333333333333	0
bin	-0.3	0
bin	-0.26666666666667	0
bin	-0.23333333333333	0
bin	-0.2	0
bin	-0.16666666666667	0
bin	-0.13333333333333	0
bin	-0.1	0
bin	-0.066666666666667	0
bin	-0.033333333333333	0
bin	0	0
bin	0.033333333333333	0
bin	0.066666666666667	0
bin	0.1	0
bin	0.13333333333333	0
bin	0.16666666666667	0
bin	0.2	0
bin	0.23333333333333	0
bin	0.26666666666667	0
bin	0.3	0
bin	0.33333333333333	0
bin	0.36666666666667	0
bin	0.4	0
bin	0.43333333333333	0
bin	0.46666666666667	0
bin	0.5	0
statistic scenarioPRJP1.node[0].wlan.radio 	bitErrorRate:histogram
field count 0
field mean nan
field stddev nan
field sum 0
field sqrsum 0
field min nan
field max nan
attr source  bitErrorRate
attr title  "Bit error rate, histogram"
bin	-INF	0
bin	-0.5	0
bin	-0.46666666666667	0
bin	-0.43333333333333	0
bin	-0.4	0
bin	-0.36666666666667	0
bin	-0.33333333333333	0
bin	-0.3	0
bin	-0.26666666666667	0
bin	-0.23333333333333	0
bin	-0.2	0
bin	-0.16666666666667	0
bin	-0.13333333333333	0
bin	-0.1	0
bin	-0.066666666666667	0
bin	-0.033333333333333	0
bin	0	0
bin	0.033333333333333	0
bin	0.066666666666667	0
bin	0.1	0
bin	0.13333333333333	0
bin	0.16666666666667	0
bin	0.2	0
bin	0.23333333333333	0
bin	0.26666666666667	0
bin	0.3	0
bin	0.33333333333333	0
bin	0.36666666666667	0
bin	0.4	0
bin	0.43333333333333	0
bin	0.46666666666667	0
bin	0.5	0
statistic scenarioPRJP1.node[0].wlan.radio 	packetErrorRate:histogram
field count 341692
field mean 0.26423461736254
field stddev 0.43245000754264
field sum 90286.854875841
field sqrsum 87757.574617278
field min 0
field max 1
attr source  packetErrorRate
attr title  "Packet error rate, histogram"
bin	-INF	0
bin	-0.5	0
bin	-0.43333333333333	0
bin	-0.36666666666667	0
bin	-0.3	0
bin	-0.23333333333333	0
bin	-0.16666666666667	0
bin	-0.1	0
bin	-0.033333333333333	241045
bin	0.033333333333333	4234
bin	0.1	1978
bin	0.16666666666667	1427
bin	0.23333333333333	1076
bin	0.3	905
bin	0.36666666666667	772
bin	0.43333333333333	784
bin	0.5	652
bin	0.56666666666667	697
bin	0.63333333333333	656
bin	0.7	677
bin	0.76666666666667	742
bin	0.83333333333333	905
bin	0.9	1339
bin	0.96666666666667	83803
bin	1.0333333333333	0
bin	1.1	0
bin	1.1666666666667	0
bin	1.2333333333333	0
bin	1.3	0
bin	1.3666666666667	0
bin	1.4333333333333	0
bin	1.5	0
statistic scenarioPRJP1.node[0].wlan.radio 	minSNIR:histogram
field count 341692
field mean 2546.854124079
field stddev 32572.243165934
field sum 870239679.36482
field sqrsum 3.6473379015202e+14
field min 0.00016822941588679
field max 5201457.6199296
attr source  minSNIR
attr title  "Min SNIR, histogram"
bin	-INF	0
bin	-299.05847643042	0
bin	-259.13867431205	0
bin	-219.21887219369	0
bin	-179.29907007532	0
bin	-139.37926795696	0
bin	-99.459465838592	0
bin	-59.539663720226	0
bin	-19.619861601861	188226
bin	20.299940516504	37244
bin	60.21974263487	15662
bin	100.13954475323	11548
bin	140.0593468716	10532
bin	179.97914898997	7825
bin	219.89895110833	6401
bin	259.8187532267	4775
bin	299.73855534506	4157
bin	339.65835746343	3245
bin	379.57815958179	2456
bin	419.49796170016	2114
bin	459.41776381852	1932
bin	499.33756593689	1867
bin	539.25736805525	1613
bin	579.17717017362	1427
bin	619.09697229198	1263
bin	659.01677441035	1052
bin	698.93657652871	991
bin	738.85637864708	934
bin	778.77618076545	920
bin	818.69598288381	744
bin	858.61578500218	630
bin	898.53558712054	34134
scalar scenarioPRJP1.node[0].lo0.lo 	droppedPkBitError:count 	0
attr interpolationmode  none
attr source  dropPkBitError
attr title  "packets dropped/bit error, count"
scalar scenarioPRJP1.node[0].lo0.lo 	droppedPkBitError:sum(packetBytes) 	0
attr interpolationmode  none
attr source  dropPkBitError
attr title  "packets dropped/bit error, sum(packetBytes)"
scalar scenarioPRJP1.node[0].lo0.lo 	rcvdPkFromHL:count 	114
attr interpolationmode  none
attr source  packetReceivedFromUpper
attr title  "packets received from higher layer, count"
scalar scenarioPRJP1.node[0].lo0.lo 	rcvdPkFromHL:sum(packetBytes) 	59280
attr interpolationmode  none
attr source  packetReceivedFromUpper
attr title  "packets received from higher layer, sum(packetBytes)"
scalar scenarioPRJP1.node[0].lo0.lo 	passedUpPk:count 	114
attr interpolationmode  none
attr source  packetSentToUpper
attr title  "packets passed to higher layer, count"
scalar scenarioPRJP1.node[0].lo0.lo 	passedUpPk:sum(packetBytes) 	59280
attr interpolationmode  none
attr source  packetSentToUpper
attr title  "packets passed to higher layer, sum(packetBytes)"
scalar scenarioPRJP1.node[20].app 	"Total sent" 	2606
scalar scenarioPRJP1.node[20].app 	"Total received" 	114
scalar scenarioPRJP1.node[20].app 	"Total deleted" 	1
scalar scenarioPRJP1.node[20].app 	dropPk:count 	1
attr interpolationmode  none
attr source  dropPk
attr title  "packets dropped, count"
scalar scenarioPRJP1.node[20].app 	dropPk:sum(packetBytes) 	512
attr interpolationmode  none
attr source  dropPk
attr title  "packets dropped, sum(packetBytes)"
scalar scenarioPRJP1.node[20].app 	outOfOrderPk:count 	17
attr interpolationmode  none
attr source  outOfOrderPk
attr title  "packets received out of order, count"
scalar scenarioPRJP1.node[20].app 	outOfOrderPk:sum(packetBytes) 	8704
attr interpolationmode  none
attr source  outOfOrderPk
attr title  "packets received out of order, sum(packetBytes)"
scalar scenarioPRJP1.node[20].app 	rcvdPk:count 	114
attr interpolationmode  none
attr source  rcvdPk
attr title  "packets received, count"
scalar scenarioPRJP1.node[20].app 	rcvdPk:sum(packetBytes) 	58368
attr interpolationmode  none
attr source  rcvdPk
attr title  "packets received, sum(packetBytes)"
statistic scenarioPRJP1.node[20].app 	endToEndDelay:histogram
field count 114
field mean 0.93398714461589
field stddev 2.4961708678537
field sum 106.47453448621
field sqrsum 803.53404361104
field min 0.002063167769
field max 12.399020923878
attr interpolationmode  none
attr source  messageAge(rcvdPk)
attr title  "delay, histogram"
attr unit  s
bin	-INF	0
bin	-6.1964157102855	0
bin	-5.3699518598782	0
bin	-4.543488009471	0
bin	-3.7170241590637	0
bin	-2.8905603086564	0
bin	-2.0640964582492	0
bin	-1.2376326078419	0
bin	-0.41116875743463	90
bin	0.41529509297263	5
bin	1.2417589433799	6
bin	2.0682227937872	2
bin	2.8946866441944	2
bin	3.7211504946017	1
bin	4.547614345009	1
bin	5.3740781954162	0
bin	6.2005420458235	1
bin	7.0270058962308	0
bin	7.853469746638	0
bin	8.6799335970453	2
bin	9.5063974474526	1
bin	10.33286129786	1
bin	11.159325148267	1
bin	11.985788998674	1
bin	12.812252849082	0
bin	13.638716699489	0
bin	14.465180549896	0
bin	15.291644400303	0
bin	16.118108250711	0
bin	16.944572101118	0
bin	17.771035951525	0
bin	18.597499801932	0
scalar scenarioPRJP1.node[20].app 	sentPk:count 	2606
attr interpolationmode  none
attr source  sentPk
attr title  "packets sent, count"
scalar scenarioPRJP1.node[20].app 	sentPk:sum(packetBytes) 	1334272
attr interpolationmode  none
attr source  sentPk
attr title  "packets sent, sum(packetBytes)"
scalar scenarioPRJP1.node[20].udp 	droppedPkBadChecksum:count 	0
attr interpolationmode  none
attr title  "packets dropped (checksum error), count"
scalar scenarioPRJP1.node[20].udp 	droppedPkWrongPort:count 	0
attr interpolationmode  none
attr title  "packets dropped (wrong port), count"
scalar scenarioPRJP1.node[20].udp 	passedUpPk:count 	132
attr interpolationmode  none
attr title  "packets passed up, count"
scalar scenarioPRJP1.node[20].udp 	rcvdPk:count 	132
attr interpolationmode  none
attr source  rcvdPk
attr title  "packets received, count"
scalar scenarioPRJP1.node[20].udp 	rcvdPk:sum(packetBytes) 	68640
attr interpolationmode  none
attr source  rcvdPk
attr title  "packets received, sum(packetBytes)"
scalar scenarioPRJP1.node[20].udp 	sentPk:count 	2606
attr interpolationmode  none
attr source  sentPk
attr title  "packets sent, count"
scalar scenarioPRJP1.node[20].udp 	sentPk:sum(packetBytes) 	1355120
attr interpolationmode  none
attr source  sentPk
attr title  "packets sent, sum(packetBytes)"
scalar scenarioPRJP1.node[20].networkLayer.arp 	failedARPResolution:count 	101
attr title  "ARP failed resolutions, count"
scalar scenarioPRJP1.node[20].networkLayer.arp 	completedARPResolution:count 	1542
attr title  "ARP completed resolutions, count"
scalar scenarioPRJP1.node[20].networkLayer.arp 	initiatedARPResolution:count 	190
attr title  "ARP initiated resolutions, count"
scalar scenarioPRJP1.node[20].networkLayer.arp 	sentReply:count 	61
attr title  "ARP replies sent, count"
scalar scenarioPRJP1.node[20].networkLayer.arp 	sentReq:count 	427
attr title  "ARP request sent, count"
scalar scenarioPRJP1.node[20].mobility 	startTime 	2.5
scalar scenarioPRJP1.node[20].mobility 	totalTime 	947.5
scalar scenarioPRJP1.node[20].mobility 	stopTime 	950
scalar scenarioPRJP1.node[20].mobility 	minSpeed 	2.4754796852343e-13
scalar scenarioPRJP1.node[20].mobility 	maxSpeed 	20.846895335785
scalar scenarioPRJP1.node[20].mobility 	totalDistance 	8964.3903755388
scalar scenarioPRJP1.node[20].mobility 	totalCO2Emission 	2625.1777607167
scalar scenarioPRJP1.node[20].wlan.mgmt 	dataQueueLen:max 	45
attr interpolationmode  sample-hold
attr title  "data queue length, max"
scalar scenarioPRJP1.node[20].wlan.mgmt 	dataQueueLen:timeavg 	0.078438512955717
attr interpolationmode  sample-hold
attr title  "data queue length, timeavg"
scalar scenarioPRJP1.node[20].wlan.mgmt 	dropPkByQueue:count 	0
attr interpolationmode  none
attr source  dropPkByQueue
attr title  "packets dropped by queue, count"
scalar scenarioPRJP1.node[20].wlan.mgmt 	dropPkByQueue:sum(packetBytes) 	0
attr interpolationmode  none
attr source  dropPkByQueue
attr title  "packets dropped by queue, sum(packetBytes)"
scalar scenarioPRJP1.node[20].wlan.mac 	"number of received packets" 	10830
scalar scenarioPRJP1.node[20].wlan.mac 	"number of collisions" 	85176
scalar scenarioPRJP1.node[20].wlan.mac 	"number of internal collisions" 	0
scalar scenarioPRJP1.node[20].wlan.mac 	"number of retry for AC 0" 	33191
scalar scenarioPRJP1.node[20].wlan.mac 	"number of retry for AC 1" 	0
scalar scenarioPRJP1.node[20].wlan.mac 	"number of retry for AC 2" 	0
scalar scenarioPRJP1.node[20].wlan.mac 	"number of retry for AC 3" 	0
scalar scenarioPRJP1.node[20].wlan.mac 	"sent and received bits" 	19098976
scalar scenarioPRJP1.node[20].wlan.mac 	"sent packet within AC 0" 	6090
scalar scenarioPRJP1.node[20].wlan.mac 	"sent packet within AC 1" 	0
scalar scenarioPRJP1.node[20].wlan.mac 	"sent packet within AC 2" 	0
scalar scenarioPRJP1.node[20].wlan.mac 	"sent packet within AC 3" 	0
scalar scenarioPRJP1.node[20].wlan.mac 	"sent in TXOP " 	0
scalar scenarioPRJP1.node[20].wlan.mac 	"sentWithoutRetry AC 0" 	5418
scalar scenarioPRJP1.node[20].wlan.mac 	"sentWithoutRetry AC 1" 	0
scalar scenarioPRJP1.node[20].wlan.mac 	"sentWithoutRetry AC 2" 	0
scalar scenarioPRJP1.node[20].wlan.mac 	"sentWithoutRetry AC 3" 	0
scalar scenarioPRJP1.node[20].wlan.mac 	"numGivenUp AC 0" 	5298
scalar scenarioPRJP1.node[20].wlan.mac 	"numGivenUp AC 1" 	0
scalar scenarioPRJP1.node[20].wlan.mac 	"numGivenUp AC 2" 	0
scalar scenarioPRJP1.node[20].wlan.mac 	"numGivenUp AC 3" 	0
scalar scenarioPRJP1.node[20].wlan.mac 	"numDropped AC 0" 	259
scalar scenarioPRJP1.node[20].wlan.mac 	"numDropped AC 1" 	0
scalar scenarioPRJP1.node[20].wlan.mac 	"numDropped AC 2" 	0
scalar scenarioPRJP1.node[20].wlan.mac 	"numDropped AC 3" 	0
scalar scenarioPRJP1.node[20].wlan.mac 	rcvdPkFromLL:count 	357725
attr interpolationmode  none
attr source  packetReceivedFromLower
attr title  "packets received from lower layer, count"
scalar scenarioPRJP1.node[20].wlan.mac 	rcvdPkFromLL:sum(packetBytes) 	86461720
attr interpolationmode  none
attr source  packetReceivedFromLower
attr title  "packets received from lower layer, sum(packetBytes)"
scalar scenarioPRJP1.node[20].wlan.mac 	sentDownPk:count 	66760
attr interpolationmode  none
attr source  packetSentToLower
attr title  "packets sent to lower layer, count"
scalar scenarioPRJP1.node[20].wlan.mac 	sentDownPk:sum(packetBytes) 	18733900
attr interpolationmode  none
attr source  packetSentToLower
attr title  "packets sent to lower layer, sum(packetBytes)"
scalar scenarioPRJP1.node[20].wlan.mac 	rcvdPkFromHL:count 	22998
attr interpolationmode  none
attr source  packetReceivedFromUpper
attr title  "packets received from higher layer, count"
scalar scenarioPRJP1.node[20].wlan.mac 	rcvdPkFromHL:sum(packetBytes) 	4659636
attr interpolationmode  none
attr source  packetReceivedFromUpper
attr title  "packets received from higher layer, sum(packetBytes)"
scalar scenarioPRJP1.node[20].wlan.mac 	passedUpPk:count 	65934
attr interpolationmode  none
attr source  packetSentToUpper
attr title  "packets passed to higher layer, count"
scalar scenarioPRJP1.node[20].wlan.mac 	passedUpPk:sum(packetBytes) 	6330876
attr interpolationmode  none
attr source  packetSentToUpper
attr title  "packets passed to higher layer, sum(packetBytes)"
statistic scenarioPRJP1.node[20].wlan.radio 	radioChannel:histogram
field count 1
field mean 3
field stddev nan
field sum 3
field sqrsum 9
field min 3
field max 3
attr interpolationmode  sample-hold
attr source  radioChannelChanged
attr title  "Radio channel, histogram"
bin	-INF	0
bin	2	0
bin	3	1
bin	4	0
scalar scenarioPRJP1.node[20].wlan.radio 	transmissionState:count 	267040
attr interpolationmode  sample-hold
attr source  transmissionStateChanged
attr title  "Radio transmission state, count"
scalar scenarioPRJP1.node[20].wlan.radio 	receptionState:count 	896716
attr interpolationmode  sample-hold
attr source  receptionStateChanged
attr title  "Radio reception state, count"
scalar scenarioPRJP1.node[20].wlan.radio 	radioMode:count 	133522
attr interpolationmode  sample-hold
attr source  radioModeChanged
attr title  "Radio mode, count"
statistic scenarioPRJP1.node[20].wlan.radio 	symbolErrorRate:histogram
field count 0
field mean nan
field stddev nan
field sum 0
field sqrsum 0
field min nan
field max nan
attr source  symbolErrorRate
attr title  "Symbol error rate, histogram"
bin	-INF	0
bin	-0.5	0
bin	-0.46666666666667	0
bin	-0.43333333333333	0
bin	-0.4	0
bin	-0.36666666666667	0
bin	-0.33333333333333	0
bin	-0.3	0
bin	-0.26666666666667	0
bin	-0.23333333333333	0
bin	-0.2	0
bin	-0.16666666666667	0
bin	-0.13333333333333	0
bin	-0.1	0
bin	-0.066666666666667	0
bin	-0.033333333333333	0
bin	0	0
bin	0.033333333333333	0
bin	0.066666666666667	0
bin	0.1	0
bin	0.13333333333333	0
bin	0.16666666666667	0
bin	0.2	0
bin	0.23333333333333	0
bin	0.26666666666667	0
bin	0.3	0
bin	0.33333333333333	0
bin	0.36666666666667	0
bin	0.4	0
bin	0.43333333333333	0
bin	0.46666666666667	0
bin	0.5	0
statistic scenarioPRJP1.node[20].wlan.radio 	bitErrorRate:histogram
field count 0
field mean nan
field stddev nan
field sum 0
field sqrsum 0
field min nan
field max nan
attr source  bitErrorRate
attr title  "Bit error rate, histogram"
bin	-INF	0
bin	-0.5	0
bin	-0.46666666666667	0
bin	-0.43333333333333	0
bin	-0.4	0
bin	-0.36666666666667	0
bin	-0.33333333333333	0
bin	-0.3	0
bin	-0.26666666666667	0
bin	-0.23333333333333	0
bin	-0.2	0
bin	-0.16666666666667	0
bin	-0.13333333333333	0
bin	-0.1	0
bin	-0.066666666666667	0
bin	-0.033333333333333	0
bin	0	0
bin	0.033333333333333	0
bin	0.066666666666667	0
bin	0.1	0
bin	0.13333333333333	0
bin	0.16666666666667	0
bin	0.2	0
bin	0.23333333333333	0
bin	0.26666666666667	0
bin	0.3	0
bin	0.33333333333333	0
bin	0.36666666666667	0
bin	0.4	0
bin	0.43333333333333	0
bin	0.46666666666667	0
bin	0.5	0
statistic scenarioPRJP1.node[20].wlan.radio 	packetErrorRate:histogram
field count 357725
field mean 0.22314216246399
field stddev 0.40779112306989
field sum 79823.53006743
field sqrsum 77299.206900688
field min 0
field max 1
attr source  packetErrorRate
attr title  "Packet error rate, histogram"
bin	-INF	0
bin	-0.5	0
bin	-0.43333333333333	0
bin	-0.36666666666667	0
bin	-0.3	0
bin	-0.23333333333333	0
bin	-0.16666666666667	0
bin	-0.1	0
bin	-0.033333333333333	267461
bin	0.033333333333333	4295
bin	0.1	2058
bin	0.16666666666667	1412
bin	0.23333333333333	1108
bin	0.3	867
bin	0.36666666666667	822
bin	0.43333333333333	714
bin	0.5	717
bin	0.56666666666667	614
bin	0.63333333333333	635
bin	0.7	658
bin	0.76666666666667	752
bin	0.83333333333333	895
bin	0.9	1351
bin	0.96666666666667	73366
bin	1.0333333333333	0
bin	1.1	0
bin	1.1666666666667	0
bin	1.2333333333333	0
bin	1.3	0
bin	1.3666666666667	0
bin	1.4333333333333	0
bin	1.5	0
statistic scenarioPRJP1.node[20].wlan.radio 	minSNIR:histogram
field count 357725
field mean 1084.2922985315
field stddev 13737.568627022
field sum 387878462.49218
field sqrsum 67930530149120
field min 0.00017675523109788
field max 753239.71923443
attr source  minSNIR
attr title  "Min SNIR, histogram"
bin	-INF	0
bin	-28.322172469783	0
bin	-24.522167229844	0
bin	-20.722161989905	0
bin	-16.922156749965	0
bin	-13.122151510026	0
bin	-9.3221462700861	0
bin	-5.5221410301466	0
bin	-1.7221357902071	56634
bin	2.0778694497324	63364
bin	5.8778746896719	30526
bin	9.6778799296114	18258
bin	13.477885169551	12185
bin	17.27789040949	9404
bin	21.07789564943	7832
bin	24.877900889369	6330
bin	28.677906129309	5426
bin	32.477911369248	4621
bin	36.277916609188	4204
bin	40.077921849127	3871
bin	43.877927089067	3446
bin	47.677932329006	3102
bin	51.477937568946	2836
bin	55.277942808885	2712
bin	59.077948048825	2535
bin	62.877953288764	2406
bin	66.677958528704	2276
bin	70.477963768643	2163
bin	74.277969008583	2053
bin	78.077974248522	1843
bin	81.877979488462	1781
bin	85.677984728401	107917
scalar scenarioPRJP1.node[20].lo0.lo 	droppedPkBitError:count 	0
attr interpolationmode  none
attr source  dropPkBitError
attr title  "packets dropped/bit error, count"
scalar scenarioPRJP1.node[20].lo0.lo 	droppedPkBitError:sum(packetBytes) 	0
attr interpolationmode  none
attr source  dropPkBitError
attr title  "packets dropped/bit error, sum(packetBytes)"
scalar scenarioPRJP1.node[20].lo0.lo 	rcvdPkFromHL:count 	132
attr interpolationmode  none
attr source  packetReceivedFromUpper
attr title  "packets received from higher layer, count"
scalar scenarioPRJP1.node[20].lo0.lo 	rcvdPkFromHL:sum(packetBytes) 	68640
attr interpolationmode  none
attr source  packetReceivedFromUpper
attr title  "packets received from higher layer, sum(packetBytes)"
scalar scenarioPRJP1.node[20].lo0.lo 	passedUpPk:count 	132
attr interpolationmode  none
attr source  packetSentToUpper
attr title  "packets passed to higher layer, count"
scalar scenarioPRJP1.node[20].lo0.lo 	passedUpPk:sum(packetBytes) 	68640
attr interpolationmode  none
attr source  packetSentToUpper
attr title  "packets passed to higher layer, sum(packetBytes)"
scalar scenarioPRJP1.node[40].app 	"Total sent" 	2617
scalar scenarioPRJP1.node[40].app 	"Total received" 	81
scalar scenarioPRJP1.node[40].app 	"Total deleted" 	5
scalar scenarioPRJP1.node[40].app 	dropPk:count 	5
attr interpolationmode  none
attr source  dropPk
attr title  "packets dropped, count"
scalar scenarioPRJP1.node[40].app 	dropPk:sum(packetBytes) 	2560
attr interpolationmode  none
attr source  dropPk
attr title  "packets dropped, sum(packetBytes)"
scalar scenarioPRJP1.node[40].app 	outOfOrderPk:count 	12
attr interpolationmode  none
attr source  outOfOrderPk
attr title  "packets received out of order, count"
scalar scenarioPRJP1.node[40].app 	outOfOrderPk:sum(packetBytes) 	6144
attr interpolationmode  none
attr source  outOfOrderPk
attr title  "packets received out of order, sum(packetBytes)"
scalar scenarioPRJP1.node[40].app 	rcvdPk:count 	81
attr interpolationmode  none
attr source  rcvdPk
attr title  "packets received, count"
scalar scenarioPRJP1.node[40].app 	rcvdPk:sum(packetBytes) 	41472
attr interpolationmode  none
attr source  rcvdPk
attr title  "packets received, sum(packetBytes)"
statistic scenarioPRJP1.node[40].app 	endToEndDelay:histogram
field count 81
field mean 1.1041400451849
field stddev 2.3176115513238
field sum 89.435343659978
field sqrsum 528.45500861623
field min 0.001724642784
field max 12.943942704905
attr interpolationmode  none
attr source  messageAge(rcvdPk)
attr title  "delay, histogram"
attr unit  s
bin	-INF	0
bin	-6.4693843882765	0
bin	-5.6065698508018	0
bin	-4.743755313327	0
bin	-3.8809407758523	0
bin	-3.0181262383776	0
bin	-2.1553117009028	0
bin	-1.2924971634281	0
bin	-0.42968262595337	53
bin	0.43313191152137	10
bin	1.2959464489961	5
bin	2.1587609864708	5
bin	3.0215755239456	1
bin	3.8843900614203	1
bin	4.747204598895	1
bin	5.6100191363698	0
bin	6.4728336738445	1
bin	7.3356482113192	1
bin	8.198462748794	2
bin	9.0612772862687	0
bin	9.9240918237434	0
bin	10.786906361218	0
bin	11.649720898693	0
bin	12.512535436168	1
bin	13.375349973642	0
bin	14.238164511117	0
bin	15.100979048592	0
bin	15.963793586067	0
bin	16.826608123541	0
bin	17.689422661016	0
bin	18.552237198491	0
bin	19.415051735965	0
scalar scenarioPRJP1.node[40].app 	sentPk:count 	2617
attr interpolationmode  none
attr source  sentPk
attr title  "packets sent, count"
scalar scenarioPRJP1.node[40].app 	sentPk:sum(packetBytes) 	1339904
attr interpolationmode  none
attr source  sentPk
attr title  "packets sent, sum(packetBytes)"
scalar scenarioPRJP1.node[40].udp 	droppedPkBadChecksum:count 	0
attr interpolationmode  none
attr title  "packets dropped (checksum error), count"
scalar scenarioPRJP1.node[40].udp 	droppedPkWrongPort:count 	0
attr interpolationmode  none
attr title  "packets dropped (wrong port), count"
scalar scenarioPRJP1.node[40].udp 	passedUpPk:count 	98
attr interpolationmode  none
attr title  "packets passed up, count"
scalar scenarioPRJP1.node[40].udp 	rcvdPk:count 	98
attr interpolationmode  none
attr source  rcvdPk
attr title  "packets received, count"
scalar scenarioPRJP1.node[40].udp 	rcvdPk:sum(packetBytes) 	50960
attr interpolationmode  none
attr source  rcvdPk
attr title  "packets received, sum(packetBytes)"
scalar scenarioPRJP1.node[40].udp 	sentPk:count 	2617
attr interpolationmode  none
attr source  sentPk
attr title  "packets sent, count"
scalar scenarioPRJP1.node[40].udp 	sentPk:sum(packetBytes) 	1360840
attr interpolationmode  none
attr source  sentPk
attr title  "packets sent, sum(packetBytes)"
scalar scenarioPRJP1.node[40].networkLayer.arp 	failedARPResolution:count 	84
attr title  "ARP failed resolutions, count"
scalar scenarioPRJP1.node[40].networkLayer.arp 	completedARPResolution:count 	1974
attr title  "ARP completed resolutions, count"
scalar scenarioPRJP1.node[40].networkLayer.arp 	initiatedARPResolution:count 	159
attr title  "ARP initiated resolutions, count"
scalar scenarioPRJP1.node[40].networkLayer.arp 	sentReply:count 	56
attr title  "ARP replies sent, count"
scalar scenarioPRJP1.node[40].networkLayer.arp 	sentReq:count 	369
attr title  "ARP request sent, count"
scalar scenarioPRJP1.node[40].mobility 	startTime 	4.9
scalar scenarioPRJP1.node[40].mobility 	totalTime 	945.1
scalar scenarioPRJP1.node[40].mobility 	stopTime 	950
scalar scenarioPRJP1.node[40].mobility 	minSpeed 	2.475507519714e-13
scalar scenarioPRJP1.node[40].mobility 	maxSpeed 	18.680499039505
scalar scenarioPRJP1.node[40].mobility 	totalDistance 	8776.4702789316
scalar scenarioPRJP1.node[40].mobility 	totalCO2Emission 	2548.7483077966
scalar scenarioPRJP1.node[40].wlan.mgmt 	dataQueueLen:max 	38
attr interpolationmode  sample-hold
attr title  "data queue length, max"
scalar scenarioPRJP1.node[40].wlan.mgmt 	dataQueueLen:timeavg 	0.042447838405971
attr interpolationmode  sample-hold
attr title  "data queue length, timeavg"
scalar scenarioPRJP1.node[40].wlan.mgmt 	dropPkByQueue:count 	0
attr interpolationmode  none
attr source  dropPkByQueue
attr title  "packets dropped by queue, count"
scalar scenarioPRJP1.node[40].wlan.mgmt 	dropPkByQueue:sum(packetBytes) 	0
attr interpolationmode  none
attr source  dropPkByQueue
attr title  "packets dropped by queue, sum(packetBytes)"
scalar scenarioPRJP1.node[40].wlan.mac 	"number of received packets" 	9742
scalar scenarioPRJP1.node[40].wlan.mac 	"number of collisions" 	75586
scalar scenarioPRJP1.node[40].wlan.mac 	"number of internal collisions" 	0
scalar scenarioPRJP1.node[40].wlan.mac 	"number of retry for AC 0" 	26007
scalar scenarioPRJP1.node[40].wlan.mac 	"number of retry for AC 1" 	0
scalar scenarioPRJP1.node[40].wlan.mac 	"number of retry for AC 2" 	0
scalar scenarioPRJP1.node[40].wlan.mac 	"number of retry for AC 3" 	0
scalar scenarioPRJP1.node[40].wlan.mac 	"sent and received bits" 	19561664
scalar scenarioPRJP1.node[40].wlan.mac 	"sent packet within AC 0" 	5951
scalar scenarioPRJP1.node[40].wlan.mac 	"sent packet within AC 1" 	0
scalar scenarioPRJP1.node[40].wlan.mac 	"sent packet within AC 2" 	0
scalar scenarioPRJP1.node[40].wlan.mac 	"sent packet within AC 3" 	0
scalar scenarioPRJP1.node[40].wlan.mac 	"sent in TXOP " 	0
scalar scenarioPRJP1.node[40].wlan.mac 	"sentWithoutRetry AC 0" 	5314
scalar scenarioPRJP1.node[40].wlan.mac 	"sentWithoutRetry AC 1" 	0
scalar scenarioPRJP1.node[40].wlan.mac 	"sentWithoutRetry AC 2" 	0
scalar scenarioPRJP1.node[40].wlan.mac 	"sentWithoutRetry AC 3" 	0
scalar scenarioPRJP1.node[40].wlan.mac 	"numGivenUp AC 0" 	4104
scalar scenarioPRJP1.node[40].wlan.mac 	"numGivenUp AC 1" 	0
scalar scenarioPRJP1.node[40].wlan.mac 	"numGivenUp AC 2" 	0
scalar scenarioPRJP1.node[40].wlan.mac 	"numGivenUp AC 3" 	0
scalar scenarioPRJP1.node[40].wlan.mac 	"numDropped AC 0" 	102
scalar scenarioPRJP1.node[40].wlan.mac 	"numDropped AC 1" 	0
scalar scenarioPRJP1.node[40].wlan.mac 	"numDropped AC 2" 	0
scalar scenarioPRJP1.node[40].wlan.mac 	"numDropped AC 3" 	0
scalar scenarioPRJP1.node[40].wlan.mac 	rcvdPkFromLL:count 	339271
attr interpolationmode  none
attr source  packetReceivedFromLower
attr title  "packets received from lower layer, count"
scalar scenarioPRJP1.node[40].wlan.mac 	rcvdPkFromLL:sum(packetBytes) 	87245890
attr interpolationmode  none
attr source  packetReceivedFromLower
attr title  "packets received from lower layer, sum(packetBytes)"
scalar scenarioPRJP1.node[40].wlan.mac 	sentDownPk:count 	56068
attr interpolationmode  none
attr source  packetSentToLower
attr title  "packets sent to lower layer, count"
scalar scenarioPRJP1.node[40].wlan.mac 	sentDownPk:sum(packetBytes) 	15108100
attr interpolationmode  none
attr source  packetSentToLower
attr title  "packets sent to lower layer, sum(packetBytes)"
scalar scenarioPRJP1.node[40].wlan.mac 	rcvdPkFromHL:count 	20421
attr interpolationmode  none
attr source  packetReceivedFromUpper
attr title  "packets received from higher layer, count"
scalar scenarioPRJP1.node[40].wlan.mac 	rcvdPkFromHL:sum(packetBytes) 	4176092
attr interpolationmode  none
attr source  packetReceivedFromUpper
attr title  "packets received from higher layer, sum(packetBytes)"
scalar scenarioPRJP1.node[40].wlan.mac 	passedUpPk:count 	49132
attr interpolationmode  none
attr source  packetSentToUpper
attr title  "packets passed to higher layer, count"
scalar scenarioPRJP1.node[40].wlan.mac 	passedUpPk:sum(packetBytes) 	4807628
attr interpolationmode  none
attr source  packetSentToUpper
attr title  "packets passed to higher layer, sum(packetBytes)"
statistic scenarioPRJP1.node[40].wlan.radio 	radioChannel:histogram
field count 1
field mean 3
field stddev nan
field sum 3
field sqrsum 9
field min 3
field max 3
attr interpolationmode  sample-hold
attr source  radioChannelChanged
attr title  "Radio channel, histogram"
bin	-INF	0
bin	2	0
bin	3	1
bin	4	0
scalar scenarioPRJP1.node[40].wlan.radio 	transmissionState:count 	224270
attr interpolationmode  sample-hold
attr source  transmissionStateChanged
attr title  "Radio transmission state, count"
scalar scenarioPRJP1.node[40].wlan.radio 	receptionState:count 	837516
attr interpolationmode  sample-hold
attr source  receptionStateChanged
attr title  "Radio reception state, count"
scalar scenarioPRJP1.node[40].wlan.radio 	radioMode:count 	112137
attr interpolationmode  sample-hold
attr source  radioModeChanged
attr title  "Radio mode, count"
statistic scenarioPRJP1.node[40].wlan.radio 	symbolErrorRate:histogram
field count 0
field mean nan
field stddev nan
field sum 0
field sqrsum 0
field min nan
field max nan
attr source  symbolErrorRate
attr title  "Symbol error rate, histogram"
bin	-INF	0
bin	-0.5	0
bin	-0.46666666666667	0
bin	-0.43333333333333	0
bin	-0.4	0
bin	-0.36666666666667	0
bin	-0.33333333333333	0
bin	-0.3	0
bin	-0.26666666666667	0
bin	-0.23333333333333	0
bin	-0.2	0
bin	-0.16666666666667	0
bin	-0.13333333333333	0
bin	-0.1	0
bin	-0.066666666666667	0
bin	-0.033333333333333	0
bin	0	0
bin	0.033333333333333	0
bin	0.066666666666667	0
bin	0.1	0
bin	0.13333333333333	0
bin	0.16666666666667	0
bin	0.2	0
bin	0.23333333333333	0
bin	0.26666666666667	0
bin	0.3	0
bin	0.33333333333333	0
bin	0.36666666666667	0
bin	0.4	0
bin	0.43333333333333	0
bin	0.46666666666667	0
bin	0.5	0
statistic scenarioPRJP1.node[40].wlan.radio 	bitErrorRate:histogram
field count 0
field mean nan
field stddev nan
field sum 0
field sqrsum 0
field min nan
field max nan
attr source  bitErrorRate
attr title  "Bit error rate, histogram"
bin	-INF	0
bin	-0.5	0
bin	-0.46666666666667	0
bin	-0.43333333333333	0
bin	-0.4	0
bin	-0.36666666666667	0
bin	-0.33333333333333	0
bin	-0.3	0
bin	-0.26666666666667	0
bin	-0.23333333333333	0
bin	-0.2	0
bin	-0.16666666666667	0
bin	-0.13333333333333	0
bin	-0.1	0
bin	-0.066666666666667	0
bin	-0.033333333333333	0
bin	0	0
bin	0.033333333333333	0
bin	0.066666666666667	0
bin	0.1	0
bin	0.13333333333333	0
bin	0.16666666666667	0
bin	0.2	0
bin	0.23333333333333	0
bin	0.26666666666667	0
bin	0.3	0
bin	0.33333333333333	0
bin	0.36666666666667	0
bin	0.4	0
bin	0.43333333333333	0
bin	0.46666666666667	0
bin	0.5	0
statistic scenarioPRJP1.node[40].wlan.radio 	packetErrorRate:histogram
field count 339271
field mean 0.20962248743076
field stddev 0.39867437264353
field sum 71118.830933123
field sqrsum 68832.105963848
field min 0
field max 1
attr source  packetErrorRate
attr title  "Packet error rate, histogram"
bin	-INF	0
bin	-0.36558065392454	0
bin	-0.3168365667346	0
bin	-0.26809247954466	0
bin	-0.21934839235472	0
bin	-0.17060430516478	0
bin	-0.12186021797485	0
bin	-0.073116130784908	0
bin	-0.024372043594969	257828
bin	0.024372043594969	3658
bin	0.073116130784908	1748
bin	0.12186021797485	1246
bin	0.17060430516478	955
bin	0.21934839235472	791
bin	0.26809247954466	656
bin	0.3168365667346	617
bin	0.36558065392454	542
bin	0.41432474111448	498
bin	0.46306882830442	463
bin	0.51181291549435	445
bin	0.56055700268429	474
bin	0.60930108987423	442
bin	0.65804517706417	398
bin	0.70678926425411	456
bin	0.75553335144405	449
bin	0.80427743863398	553
bin	0.85302152582392	609
bin	0.90176561301386	766
bin	0.9505097002038	2693
bin	0.99925378739374	62984
bin	1.0479978745837	0
bin	1.0967419617736	0
statistic scenarioPRJP1.node[40].wlan.radio 	minSNIR:histogram
field count 339271
field mean 2099.5239209344
field stddev 26700.889000168
field sum 712307580.17933
field sqrsum 2.4337380340383e+14
field min 0.0001676731726422
field max 753239.71923443
attr source  minSNIR
attr title  "Min SNIR, histogram"
bin	-INF	0
bin	-296.08002674951	0
bin	-256.29260017252	0
bin	-216.50517359552	0
bin	-176.71774701853	0
bin	-136.93032044154	0
bin	-97.14289386455	0
bin	-57.355467287559	0
bin	-17.568040710567	167132
bin	22.219385866424	33528
bin	62.006812443416	16932
bin	101.79423902041	12986
bin	141.5816655974	12206
bin	181.36909217439	9191
bin	221.15651875138	7240
bin	260.94394532837	5936
bin	300.73137190536	4768
bin	340.51879848236	3977
bin	380.30622505935	3397
bin	420.09365163634	2932
bin	459.88107821333	2680
bin	499.66850479032	2361
bin	539.45593136731	2015
bin	579.24335794431	2056
bin	619.0307845213	1635
bin	658.81821109829	1435
bin	698.60563767528	1463
bin	738.39306425227	1258
bin	778.18049082926	1223
bin	817.96791740625	1221
bin	857.75534398325	1162
bin	897.54277056024	40537
scalar scenarioPRJP1.node[40].lo0.lo 	droppedPkBitError:count 	0
attr interpolationmode  none
attr source  dropPkBitError
attr title  "packets dropped/bit error, count"
scalar scenarioPRJP1.node[40].lo0.lo 	droppedPkBitError:sum(packetBytes) 	0
attr interpolationmode  none
attr source  dropPkBitError
attr title  "packets dropped/bit error, sum(packetBytes)"
scalar scenarioPRJP1.node[40].lo0.lo 	rcvdPkFromHL:count 	98
attr interpolationmode  none
attr source  packetReceivedFromUpper
attr title  "packets received from higher layer, count"
scalar scenarioPRJP1.node[40].lo0.lo 	rcvdPkFromHL:sum(packetBytes) 	50960
attr interpolationmode  none
attr source  packetReceivedFromUpper
attr title  "packets received from higher layer, sum(packetBytes)"
scalar scenarioPRJP1.node[40].lo0.lo 	passedUpPk:count 	98
attr interpolationmode  none
attr source  packetSentToUpper
attr title  "packets passed to higher layer, count"
scalar scenarioPRJP1.node[40].lo0.lo 	passedUpPk:sum(packetBytes) 	50960
attr interpolationmode  none
attr source  packetSentToUpper
attr title  "packets passed to higher layer, sum(packetBytes)"
scalar scenarioPRJP1.node[60].app 	"Total sent" 	2604
scalar scenarioPRJP1.node[60].app 	"Total received" 	92
scalar scenarioPRJP1.node[60].app 	"Total deleted" 	6
scalar scenarioPRJP1.node[60].app 	dropPk:count 	6
attr interpolationmode  none
attr source  dropPk
attr title  "packets dropped, count"
scalar scenarioPRJP1.node[60].app 	dropPk:sum(packetBytes) 	3072
attr interpolationmode  none
attr source  dropPk
attr title  "packets dropped, sum(packetBytes)"
scalar scenarioPRJP1.node[60].app 	outOfOrderPk:count 	2
attr interpolationmode  none
attr source  outOfOrderPk
attr title  "packets received out of order, count"
scalar scenarioPRJP1.node[60].app 	outOfOrderPk:sum(packetBytes) 	1024
attr interpolationmode  none
attr source  outOfOrderPk
attr title  "packets received out of order, sum(packetBytes)"
scalar scenarioPRJP1.node[60].app 	rcvdPk:count 	92
attr interpolationmode  none
attr source  rcvdPk
attr title  "packets received, count"
scalar scenarioPRJP1.node[60].app 	rcvdPk:sum(packetBytes) 	47104
attr interpolationmode  none
attr source  rcvdPk
attr title  "packets received, sum(packetBytes)"
statistic scenarioPRJP1.node[60].app 	endToEndDelay:histogram
field count 92
field mean 1.2080698717314
field stddev 3.238956867141
field sum 111.14242819929
field sqrsum 1088.9344034138
field min 0.000964305969
field max 18.626123161062
attr interpolationmode  none
attr source  messageAge(rcvdPk)
attr title  "delay, histogram"
attr unit  s
bin	-INF	0
bin	-9.3116151215775	0
bin	-8.0699378645713	0
bin	-6.8282606075651	0
bin	-5.5865833505589	0
bin	-4.3449060935527	0
bin	-3.1032288365465	0
bin	-1.8615515795403	0
bin	-0.6198743225341	72
bin	0.6218029344721	7
bin	1.8634801914783	2
bin	3.1051574484845	4
bin	4.3468347054907	1
bin	5.5885119624969	0
bin	6.8301892195031	0
bin	8.0718664765093	2
bin	9.3135437335155	1
bin	10.555220990522	0
bin	11.796898247528	1
bin	13.038575504534	0
bin	14.28025276154	1
bin	15.521930018547	0
bin	16.763607275553	0
bin	18.005284532559	1
bin	19.246961789565	0
bin	20.488639046571	0
bin	21.730316303577	0
bin	22.971993560584	0
bin	24.21367081759	0
bin	25.455348074596	0
bin	26.697025331602	0
bin	27.938702588608	0
scalar scenarioPRJP1.node[60].app 	sentPk:count 	2604
attr interpolationmode  none
attr source  sentPk
attr title  "packets sent, count"
scalar scenarioPRJP1.node[60].app 	sentPk:sum(packetBytes) 	1333248
attr interpolationmode  none
attr source  sentPk
attr title  "packets sent, sum(packetBytes)"
scalar scenarioPRJP1.node[60].udp 	droppedPkBadChecksum:count 	0
attr interpolationmode  none
attr title  "packets dropped (checksum error), count"
scalar scenarioPRJP1.node[60].udp 	droppedPkWrongPort:count 	0
attr interpolationmode  none
attr title  "packets dropped (wrong port), count"
scalar scenarioPRJP1.node[60].udp 	passedUpPk:count 	100
attr interpolationmode  none
attr title  "packets passed up, count"
scalar scenarioPRJP1.node[60].udp 	rcvdPk:count 	100
attr interpolationmode  none
attr source  rcvdPk
attr title  "packets received, count"
scalar scenarioPRJP1.node[60].udp 	rcvdPk:sum(packetBytes) 	52000
attr interpolationmode  none
attr source  rcvdPk
attr title  "packets received, sum(packetBytes)"
scalar scenarioPRJP1.node[60].udp 	sentPk:count 	2604
attr interpolationmode  none
attr source  sentPk
attr title  "packets sent, count"
scalar scenarioPRJP1.node[60].udp 	sentPk:sum(packetBytes) 	1354080
attr interpolationmode  none
attr source  sentPk
attr title  "packets sent, sum(packetBytes)"
scalar scenarioPRJP1.node[60].networkLayer.arp 	failedARPResolution:count 	67
attr title  "ARP failed resolutions, count"
scalar scenarioPRJP1.node[60].networkLayer.arp 	completedARPResolution:count 	1712
attr title  "ARP completed resolutions, count"
scalar scenarioPRJP1.node[60].networkLayer.arp 	initiatedARPResolution:count 	132
attr title  "ARP initiated resolutions, count"
scalar scenarioPRJP1.node[60].networkLayer.arp 	sentReply:count 	57
attr title  "ARP replies sent, count"
scalar scenarioPRJP1.node[60].networkLayer.arp 	sentReq:count 	296
attr title  "ARP request sent, count"
scalar scenarioPRJP1.node[60].mobility 	startTime 	7.3
scalar scenarioPRJP1.node[60].mobility 	totalTime 	942.7
scalar scenarioPRJP1.node[60].mobility 	stopTime 	950
scalar scenarioPRJP1.node[60].mobility 	minSpeed 	2.4754453502519e-13
scalar scenarioPRJP1.node[60].mobility 	maxSpeed 	16.812893988717
scalar scenarioPRJP1.node[60].mobility 	totalDistance 	9320.8186263689
scalar scenarioPRJP1.node[60].mobility 	totalCO2Emission 	2458.1148877113
scalar scenarioPRJP1.node[60].wlan.mgmt 	dataQueueLen:max 	12
attr interpolationmode  sample-hold
attr title  "data queue length, max"
scalar scenarioPRJP1.node[60].wlan.mgmt 	dataQueueLen:timeavg 	0
attr interpolationmode  sample-hold
attr title  "data queue length, timeavg"
scalar scenarioPRJP1.node[60].wlan.mgmt 	dropPkByQueue:count 	0
attr interpolationmode  none
attr source  dropPkByQueue
attr title  "packets dropped by queue, count"
scalar scenarioPRJP1.node[60].wlan.mgmt 	dropPkByQueue:sum(packetBytes) 	0
attr interpolationmode  none
attr source  dropPkByQueue
attr title  "packets dropped by queue, sum(packetBytes)"
scalar scenarioPRJP1.node[60].wlan.mac 	"number of received packets" 	8057
scalar scenarioPRJP1.node[60].wlan.mac 	"number of collisions" 	67590
scalar scenarioPRJP1.node[60].wlan.mac 	"number of internal collisions" 	0
scalar scenarioPRJP1.node[60].wlan.mac 	"number of retry for AC 0" 	21252
scalar scenarioPRJP1.node[60].wlan.mac 	"number of retry for AC 1" 	0
scalar scenarioPRJP1.node[60].wlan.mac 	"number of retry for AC 2" 	0
scalar scenarioPRJP1.node[60].wlan.mac 	"number of retry for AC 3" 	0
scalar scenarioPRJP1.node[60].wlan.mac 	"sent and received bits" 	16905088
scalar scenarioPRJP1.node[60].wlan.mac 	"sent packet within AC 0" 	4331
scalar scenarioPRJP1.node[60].wlan.mac 	"sent packet within AC 1" 	0
scalar scenarioPRJP1.node[60].wlan.mac 	"sent packet within AC 2" 	0
scalar scenarioPRJP1.node[60].wlan.mac 	"sent packet within AC 3" 	0
scalar scenarioPRJP1.node[60].wlan.mac 	"sent in TXOP " 	0
scalar scenarioPRJP1.node[60].wlan.mac 	"sentWithoutRetry AC 0" 	3737
scalar scenarioPRJP1.node[60].wlan.mac 	"sentWithoutRetry AC 1" 	0
scalar scenarioPRJP1.node[60].wlan.mac 	"sentWithoutRetry AC 2" 	0
scalar scenarioPRJP1.node[60].wlan.mac 	"sentWithoutRetry AC 3" 	0
scalar scenarioPRJP1.node[60].wlan.mac 	"numGivenUp AC 0" 	3302
scalar scenarioPRJP1.node[60].wlan.mac 	"numGivenUp AC 1" 	0
scalar scenarioPRJP1.node[60].wlan.mac 	"numGivenUp AC 2" 	0
scalar scenarioPRJP1.node[60].wlan.mac 	"numGivenUp AC 3" 	0
scalar scenarioPRJP1.node[60].wlan.mac 	"numDropped AC 0" 	0
scalar scenarioPRJP1.node[60].wlan.mac 	"numDropped AC 1" 	0
scalar scenarioPRJP1.node[60].wlan.mac 	"numDropped AC 2" 	0
scalar scenarioPRJP1.node[60].wlan.mac 	"numDropped AC 3" 	0
scalar scenarioPRJP1.node[60].wlan.mac 	rcvdPkFromLL:count 	253866
attr interpolationmode  none
attr source  packetReceivedFromLower
attr title  "packets received from lower layer, count"
scalar scenarioPRJP1.node[60].wlan.mac 	rcvdPkFromLL:sum(packetBytes) 	68238892
attr interpolationmode  none
attr source  packetReceivedFromLower
attr title  "packets received from lower layer, sum(packetBytes)"
scalar scenarioPRJP1.node[60].wlan.mac 	sentDownPk:count 	47335
attr interpolationmode  none
attr source  packetSentToLower
attr title  "packets sent to lower layer, count"
scalar scenarioPRJP1.node[60].wlan.mac 	sentDownPk:sum(packetBytes) 	12511270
attr interpolationmode  none
attr source  packetSentToLower
attr title  "packets sent to lower layer, sum(packetBytes)"
scalar scenarioPRJP1.node[60].wlan.mac 	rcvdPkFromHL:count 	18026
attr interpolationmode  none
attr source  packetReceivedFromUpper
attr title  "packets received from higher layer, count"
scalar scenarioPRJP1.node[60].wlan.mac 	rcvdPkFromHL:sum(packetBytes) 	3488936
attr interpolationmode  none
attr source  packetReceivedFromUpper
attr title  "packets received from higher layer, sum(packetBytes)"
scalar scenarioPRJP1.node[60].wlan.mac 	passedUpPk:count 	36015
attr interpolationmode  none
attr source  packetSentToUpper
attr title  "packets passed to higher layer, count"
scalar scenarioPRJP1.node[60].wlan.mac 	passedUpPk:sum(packetBytes) 	3549596
attr interpolationmode  none
attr source  packetSentToUpper
attr title  "packets passed to higher layer, sum(packetBytes)"
statistic scenarioPRJP1.node[60].wlan.radio 	radioChannel:histogram
field count 1
field mean 3
field stddev nan
field sum 3
field sqrsum 9
field min 3
field max 3
attr interpolationmode  sample-hold
attr source  radioChannelChanged
attr title  "Radio channel, histogram"
bin	-INF	0
bin	2	0
bin	3	1
bin	4	0
scalar scenarioPRJP1.node[60].wlan.radio 	transmissionState:count 	189340
attr interpolationmode  sample-hold
attr source  transmissionStateChanged
attr title  "Radio transmission state, count"
scalar scenarioPRJP1.node[60].wlan.radio 	receptionState:count 	643292
attr interpolationmode  sample-hold
attr source  receptionStateChanged
attr title  "Radio reception state, count"
scalar scenarioPRJP1.node[60].wlan.radio 	radioMode:count 	94672
attr interpolationmode  sample-hold
attr source  radioModeChanged
attr title  "Radio mode, count"
statistic scenarioPRJP1.node[60].wlan.radio 	symbolErrorRate:histogram
field count 0
field mean nan
field stddev nan
field sum 0
field sqrsum 0
field min nan
field max nan
attr source  symbolErrorRate
attr title  "Symbol error rate, histogram"
bin	-INF	0
bin	-0.5	0
bin	-0.46666666666667	0
bin	-0.43333333333333	0
bin	-0.4	0
bin	-0.36666666666667	0
bin	-0.33333333333333	0
bin	-0.3	0
bin	-0.26666666666667	0
bin	-0.23333333333333	0
bin	-0.2	0
bin	-0.16666666666667	0
bin	-0.13333333333333	0
bin	-0.1	0
bin	-0.066666666666667	0
bin	-0.033333333333333	0
bin	0	0
bin	0.033333333333333	0
bin	0.066666666666667	0
bin	0.1	0
bin	0.13333333333333	0
bin	0.16666666666667	0
bin	0.2	0
bin	0.23333333333333	0
bin	0.26666666666667	0
bin	0.3	0
bin	0.33333333333333	0
bin	0.36666666666667	0
bin	0.4	0
bin	0.43333333333333	0
bin	0.46666666666667	0
bin	0.5	0
statistic scenarioPRJP1.node[60].wlan.radio 	bitErrorRate:histogram
field count 0
field mean nan
field stddev nan
field sum 0
field sqrsum 0
field min nan
field max nan
attr source  bitErrorRate
attr title  "Bit error rate, histogram"
bin	-INF	0
bin	-0.5	0
bin	-0.46666666666667	0
bin	-0.43333333333333	0
bin	-0.4	0
bin	-0.36666666666667	0
bin	-0.33333333333333	0
bin	-0.3	0
bin	-0.26666666666667	0
bin	-0.23333333333333	0
bin	-0.2	0
bin	-0.16666666666667	0
bin	-0.13333333333333	0
bin	-0.1	0
bin	-0.066666666666667	0
bin	-0.033333333333333	0
bin	0	0
bin	0.033333333333333	0
bin	0.066666666666667	0
bin	0.1	0
bin	0.13333333333333	0
bin	0.16666666666667	0
bin	0.2	0
bin	0.23333333333333	0
bin	0.26666666666667	0
bin	0.3	0
bin	0.33333333333333	0
bin	0.36666666666667	0
bin	0.4	0
bin	0.43333333333333	0
bin	0.46666666666667	0
bin	0.5	0
statistic scenarioPRJP1.node[60].wlan.radio 	packetErrorRate:histogram
field count 253866
field mean 0.24858676980706
field stddev 0.42310238804882
field sum 63107.728903839
field sqrsum 61133.549584154
field min 0
field max 1
attr source  packetErrorRate
attr title  "Packet error rate, histogram"
bin	-INF	0
bin	-0.5	0
bin	-0.43333333333333	0
bin	-0.36666666666667	0
bin	-0.3	0
bin	-0.23333333333333	0
bin	-0.16666666666667	0
bin	-0.1	0
bin	-0.033333333333333	182574
bin	0.033333333333333	3370
bin	0.1	1577
bin	0.16666666666667	1145
bin	0.23333333333333	861
bin	0.3	696
bin	0.36666666666667	627
bin	0.43333333333333	571
bin	0.5	534
bin	0.56666666666667	496
bin	0.63333333333333	507
bin	0.7	518
bin	0.76666666666667	583
bin	0.83333333333333	678
bin	0.9	997
bin	0.96666666666667	58132
bin	1.0333333333333	0
bin	1.1	0
bin	1.1666666666667	0
bin	1.2333333333333	0
bin	1.3	0
bin	1.3666666666667	0
bin	1.4333333333333	0
bin	1.5	0
statistic scenarioPRJP1.node[60].wlan.radio 	minSNIR:histogram
field count 253866
field mean 1597.5593666951
field stddev 17843.135084154
field sum 405566006.18542
field sqrsum 81472812099958
field min 0.00016859449211417
field max 753239.71923433
attr source  minSNIR
attr title  "Min SNIR, histogram"
bin	-INF	0
bin	-883.89384682866	0
bin	-766.00376499861	0
bin	-648.11368316856	0
bin	-530.22360133851	0
bin	-412.33351950846	0
bin	-294.4434376784	0
bin	-176.55335584835	0
bin	-58.663274018302	170292
bin	59.226807811749	27707
bin	177.1168896418	12475
bin	295.00697147185	6294
bin	412.8970533019	4068
bin	530.78713513195	3315
bin	648.67721696201	2545
bin	766.56729879206	2080
bin	884.45738062211	1745
bin	1002.3474624522	1398
bin	1120.2375442822	1203
bin	1238.1276261123	938
bin	1356.0177079423	810
bin	1473.9077897724	731
bin	1591.7978716024	642
bin	1709.6879534325	564
bin	1827.5780352625	717
bin	1945.4681170926	490
bin	2063.3581989226	411
bin	2181.2482807527	386
bin	2299.1383625827	340
bin	2417.0284444128	333
bin	2534.9185262428	323
bin	2652.8086080729	14059
scalar scenarioPRJP1.node[60].lo0.lo 	droppedPkBitError:count 	0
attr interpolationmode  none
attr source  dropPkBitError
attr title  "packets dropped/bit error, count"
scalar scenarioPRJP1.node[60].lo0.lo 	droppedPkBitError:sum(packetBytes) 	0
attr interpolationmode  none
attr source  dropPkBitError
attr title  "packets dropped/bit error, sum(packetBytes)"
scalar scenarioPRJP1.node[60].lo0.lo 	rcvdPkFromHL:count 	100
attr interpolationmode  none
attr source  packetReceivedFromUpper
attr title  "packets received from higher layer, count"
scalar scenarioPRJP1.node[60].lo0.lo 	rcvdPkFromHL:sum(packetBytes) 	52000
attr interpolationmode  none
attr source  packetReceivedFromUpper
attr title  "packets received from higher layer, sum(packetBytes)"
scalar scenarioPRJP1.node[60].lo0.lo 	passedUpPk:count 	100
attr interpolationmode  none
attr source  packetSentToUpper
attr title  "packets passed to higher layer, count"
scalar scenarioPRJP1.node[60].lo0.lo 	passedUpPk:sum(packetBytes) 	52000
attr interpolationmode  none
attr source  packetSentToUpper
attr title  "packets passed to higher layer, sum(packetBytes)"
scalar scenarioPRJP1.node[80].app 	"Total sent" 	2612
scalar scenarioPRJP1.node[80].app 	"Total received" 	110
scalar scenarioPRJP1.node[80].app 	"Total deleted" 	9
scalar scenarioPRJP1.node[80].app 	dropPk:count 	9
attr interpolationmode  none
attr source  dropPk
attr title  "packets dropped, count"
scalar scenarioPRJP1.node[80].app 	dropPk:sum(packetBytes) 	4608
attr interpolationmode  none
attr source  dropPk
attr title  "packets dropped, sum(packetBytes)"
scalar scenarioPRJP1.node[80].app 	outOfOrderPk:count 	8
attr interpolationmode  none
attr source  outOfOrderPk
attr title  "packets received out of order, count"
scalar scenarioPRJP1.node[80].app 	outOfOrderPk:sum(packetBytes) 	4096
attr interpolationmode  none
attr source  outOfOrderPk
attr title  "packets received out of order, sum(packetBytes)"
scalar scenarioPRJP1.node[80].app 	rcvdPk:count 	110
attr interpolationmode  none
attr source  rcvdPk
attr title  "packets received, count"
scalar scenarioPRJP1.node[80].app 	rcvdPk:sum(packetBytes) 	56320
attr interpolationmode  none
attr source  rcvdPk
attr title  "packets received, sum(packetBytes)"
statistic scenarioPRJP1.node[80].app 	endToEndDelay:histogram
field count 110
field mean 0.90400092645781
field stddev 2.9883006043664
field sum 99.440101910359
field sqrsum 1063.2574589782
field min 0.000964011007
field max 17.052904216808
attr interpolationmode  none
attr source  messageAge(rcvdPk)
attr title  "delay, histogram"
attr unit  s
bin	-INF	0
bin	-8.5250060918935	0
bin	-7.3882100781734	0
bin	-6.2514140644534	0
bin	-5.1146180507333	0
bin	-3.9778220370132	0
bin	-2.8410260232932	0
bin	-1.7042300095731	0
bin	-0.56743399585303	93
bin	0.56936201786703	8
bin	1.7061580315871	1
bin	2.8429540453072	1
bin	3.9797500590272	0
bin	5.1165460727473	1
bin	6.2533420864674	1
bin	7.3901381001874	1
bin	8.5269341139075	0
bin	9.6637301276276	0
bin	10.800526141348	1
bin	11.937322155068	0
bin	13.074118168788	1
bin	14.210914182508	0
bin	15.347710196228	0
bin	16.484506209948	2
bin	17.621302223668	0
bin	18.758098237388	0
bin	19.894894251108	0
bin	21.031690264828	0
bin	22.168486278548	0
bin	23.305282292268	0
bin	24.442078305988	0
bin	25.578874319708	0
scalar scenarioPRJP1.node[80].app 	sentPk:count 	2612
attr interpolationmode  none
attr source  sentPk
attr title  "packets sent, count"
scalar scenarioPRJP1.node[80].app 	sentPk:sum(packetBytes) 	1337344
attr interpolationmode  none
attr source  sentPk
attr title  "packets sent, sum(packetBytes)"
scalar scenarioPRJP1.node[80].udp 	droppedPkBadChecksum:count 	0
attr interpolationmode  none
attr title  "packets dropped (checksum error), count"
scalar scenarioPRJP1.node[80].udp 	droppedPkWrongPort:count 	0
attr interpolationmode  none
attr title  "packets dropped (wrong port), count"
scalar scenarioPRJP1.node[80].udp 	passedUpPk:count 	127
attr interpolationmode  none
attr title  "packets passed up, count"
scalar scenarioPRJP1.node[80].udp 	rcvdPk:count 	127
attr interpolationmode  none
attr source  rcvdPk
attr title  "packets received, count"
scalar scenarioPRJP1.node[80].udp 	rcvdPk:sum(packetBytes) 	66040
attr interpolationmode  none
attr source  rcvdPk
attr title  "packets received, sum(packetBytes)"
scalar scenarioPRJP1.node[80].udp 	sentPk:count 	2612
attr interpolationmode  none
attr source  sentPk
attr title  "packets sent, count"
scalar scenarioPRJP1.node[80].udp 	sentPk:sum(packetBytes) 	1358240
attr interpolationmode  none
attr source  sentPk
attr title  "packets sent, sum(packetBytes)"
scalar scenarioPRJP1.node[80].networkLayer.arp 	failedARPResolution:count 	132
attr title  "ARP failed resolutions, count"
scalar scenarioPRJP1.node[80].networkLayer.arp 	completedARPResolution:count 	2060
attr title  "ARP completed resolutions, count"
scalar scenarioPRJP1.node[80].networkLayer.arp 	initiatedARPResolution:count 	221
attr title  "ARP initiated resolutions, count"
scalar scenarioPRJP1.node[80].networkLayer.arp 	sentReply:count 	66
attr title  "ARP replies sent, count"
scalar scenarioPRJP1.node[80].networkLayer.arp 	sentReq:count 	534
attr title  "ARP request sent, count"
scalar scenarioPRJP1.node[80].mobility 	startTime 	9.7
scalar scenarioPRJP1.node[80].mobility 	totalTime 	940.3
scalar scenarioPRJP1.node[80].mobility 	stopTime 	950
scalar scenarioPRJP1.node[80].mobility 	minSpeed 	2.4756165785814e-13
scalar scenarioPRJP1.node[80].mobility 	maxSpeed 	19.240667795288
scalar scenarioPRJP1.node[80].mobility 	totalDistance 	8542.3998656466
scalar scenarioPRJP1.node[80].mobility 	totalCO2Emission 	2521.5737371218
scalar scenarioPRJP1.node[80].wlan.mgmt 	dataQueueLen:max 	100
attr interpolationmode  sample-hold
attr title  "data queue length, max"
scalar scenarioPRJP1.node[80].wlan.mgmt 	dataQueueLen:timeavg 	0.43337645189024
attr interpolationmode  sample-hold
attr title  "data queue length, timeavg"
scalar scenarioPRJP1.node[80].wlan.mgmt 	dropPkByQueue:count 	57
attr interpolationmode  none
attr source  dropPkByQueue
attr title  "packets dropped by queue, count"
scalar scenarioPRJP1.node[80].wlan.mgmt 	dropPkByQueue:sum(packetBytes) 	11596
attr interpolationmode  none
attr source  dropPkByQueue
attr title  "packets dropped by queue, sum(packetBytes)"
scalar scenarioPRJP1.node[80].wlan.mac 	"number of received packets" 	8920
scalar scenarioPRJP1.node[80].wlan.mac 	"number of collisions" 	87770
scalar scenarioPRJP1.node[80].wlan.mac 	"number of internal collisions" 	0
scalar scenarioPRJP1.node[80].wlan.mac 	"number of retry for AC 0" 	25799
scalar scenarioPRJP1.node[80].wlan.mac 	"number of retry for AC 1" 	0
scalar scenarioPRJP1.node[80].wlan.mac 	"number of retry for AC 2" 	0
scalar scenarioPRJP1.node[80].wlan.mac 	"number of retry for AC 3" 	0
scalar scenarioPRJP1.node[80].wlan.mac 	"sent and received bits" 	15772608
scalar scenarioPRJP1.node[80].wlan.mac 	"sent packet within AC 0" 	4825
scalar scenarioPRJP1.node[80].wlan.mac 	"sent packet within AC 1" 	0
scalar scenarioPRJP1.node[80].wlan.mac 	"sent packet within AC 2" 	0
scalar scenarioPRJP1.node[80].wlan.mac 	"sent packet within AC 3" 	0
scalar scenarioPRJP1.node[80].wlan.mac 	"sent in TXOP " 	0
scalar scenarioPRJP1.node[80].wlan.mac 	"sentWithoutRetry AC 0" 	4247
scalar scenarioPRJP1.node[80].wlan.mac 	"sentWithoutRetry AC 1" 	0
scalar scenarioPRJP1.node[80].wlan.mac 	"sentWithoutRetry AC 2" 	0
scalar scenarioPRJP1.node[80].wlan.mac 	"sentWithoutRetry AC 3" 	0
scalar scenarioPRJP1.node[80].wlan.mac 	"numGivenUp AC 0" 	4091
scalar scenarioPRJP1.node[80].wlan.mac 	"numGivenUp AC 1" 	0
scalar scenarioPRJP1.node[80].wlan.mac 	"numGivenUp AC 2" 	0
scalar scenarioPRJP1.node[80].wlan.mac 	"numGivenUp AC 3" 	0
scalar scenarioPRJP1.node[80].wlan.mac 	"numDropped AC 0" 	321
scalar scenarioPRJP1.node[80].wlan.mac 	"numDropped AC 1" 	0
scalar scenarioPRJP1.node[80].wlan.mac 	"numDropped AC 2" 	0
scalar scenarioPRJP1.node[80].wlan.mac 	"numDropped AC 3" 	0
scalar scenarioPRJP1.node[80].wlan.mac 	rcvdPkFromLL:count 	325602
attr interpolationmode  none
attr source  packetReceivedFromLower
attr title  "packets received from lower layer, count"
scalar scenarioPRJP1.node[80].wlan.mac 	rcvdPkFromLL:sum(packetBytes) 	89613586
attr interpolationmode  none
attr source  packetReceivedFromLower
attr title  "packets received from lower layer, sum(packetBytes)"
scalar scenarioPRJP1.node[80].wlan.mac 	sentDownPk:count 	52056
attr interpolationmode  none
attr source  packetSentToLower
attr title  "packets sent to lower layer, count"
scalar scenarioPRJP1.node[80].wlan.mac 	sentDownPk:sum(packetBytes) 	14370012
attr interpolationmode  none
attr source  packetSentToLower
attr title  "packets sent to lower layer, sum(packetBytes)"
scalar scenarioPRJP1.node[80].wlan.mac 	rcvdPkFromHL:count 	17658
attr interpolationmode  none
attr source  packetReceivedFromUpper
attr title  "packets received from higher layer, count"
scalar scenarioPRJP1.node[80].wlan.mac 	rcvdPkFromHL:sum(packetBytes) 	3708224
attr interpolationmode  none
attr source  packetReceivedFromUpper
attr title  "packets received from higher layer, sum(packetBytes)"
scalar scenarioPRJP1.node[80].wlan.mac 	passedUpPk:count 	34755
attr interpolationmode  none
attr source  packetSentToUpper
attr title  "packets passed to higher layer, count"
scalar scenarioPRJP1.node[80].wlan.mac 	passedUpPk:sum(packetBytes) 	3615316
attr interpolationmode  none
attr source  packetSentToUpper
attr title  "packets passed to higher layer, sum(packetBytes)"
statistic scenarioPRJP1.node[80].wlan.radio 	radioChannel:histogram
field count 1
field mean 3
field stddev nan
field sum 3
field sqrsum 9
field min 3
field max 3
attr interpolationmode  sample-hold
attr source  radioChannelChanged
attr title  "Radio channel, histogram"
bin	-INF	0
bin	2	0
bin	3	1
bin	4	0
scalar scenarioPRJP1.node[80].wlan.radio 	transmissionState:count 	208222
attr interpolationmode  sample-hold
attr source  transmissionStateChanged
attr title  "Radio transmission state, count"
scalar scenarioPRJP1.node[80].wlan.radio 	receptionState:count 	810733
attr interpolationmode  sample-hold
attr source  receptionStateChanged
attr title  "Radio reception state, count"
scalar scenarioPRJP1.node[80].wlan.radio 	radioMode:count 	104113
attr interpolationmode  sample-hold
attr source  radioModeChanged
attr title  "Radio mode, count"
statistic scenarioPRJP1.node[80].wlan.radio 	symbolErrorRate:histogram
field count 0
field mean nan
field stddev nan
field sum 0
field sqrsum 0
field min nan
field max nan
attr source  symbolErrorRate
attr title  "Symbol error rate, histogram"
bin	-INF	0
bin	-0.5	0
bin	-0.46666666666667	0
bin	-0.43333333333333	0
bin	-0.4	0
bin	-0.36666666666667	0
bin	-0.33333333333333	0
bin	-0.3	0
bin	-0.26666666666667	0
bin	-0.23333333333333	0
bin	-0.2	0
bin	-0.16666666666667	0
bin	-0.13333333333333	0
bin	-0.1	0
bin	-0.066666666666667	0
bin	-0.033333333333333	0
bin	0	0
bin	0.033333333333333	0
bin	0.066666666666667	0
bin	0.1	0
bin	0.13333333333333	0
bin	0.16666666666667	0
bin	0.2	0
bin	0.23333333333333	0
bin	0.26666666666667	0
bin	0.3	0
bin	0.33333333333333	0
bin	0.36666666666667	0
bin	0.4	0
bin	0.43333333333333	0
bin	0.46666666666667	0
bin	0.5	0
statistic scenarioPRJP1.node[80].wlan.radio 	bitErrorRate:histogram
field count 0
field mean nan
field stddev nan
field sum 0
field sqrsum 0
field min nan
field max nan
attr source  bitErrorRate
attr title  "Bit error rate, histogram"
bin	-INF	0
bin	-0.5	0
bin	-0.46666666666667	0
bin	-0.43333333333333	0
bin	-0.4	0
bin	-0.36666666666667	0
bin	-0.33333333333333	0
bin	-0.3	0
bin	-0.26666666666667	0
bin	-0.23333333333333	0
bin	-0.2	0
bin	-0.16666666666667	0
bin	-0.13333333333333	0
bin	-0.1	0
bin	-0.066666666666667	0
bin	-0.033333333333333	0
bin	0	0
bin	0.033333333333333	0
bin	0.066666666666667	0
bin	0.1	0
bin	0.13333333333333	0
bin	0.16666666666667	0
bin	0.2	0
bin	0.23333333333333	0
bin	0.26666666666667	0
bin	0.3	0
bin	0.33333333333333	0
bin	0.36666666666667	0
bin	0.4	0
bin	0.43333333333333	0
bin	0.46666666666667	0
bin	0.5	0
statistic scenarioPRJP1.node[80].wlan.radio 	packetErrorRate:histogram
field count 325602
field mean 0.25366920086155
field stddev 0.42651049436515
field sum 82595.199138924
field sqrsum 80182.327379028
field min 0
field max 1
attr source  packetErrorRate
attr title  "Packet error rate, histogram"
bin	-INF	0
bin	-0.5	0
bin	-0.43333333333333	0
bin	-0.36666666666667	0
bin	-0.3	0
bin	-0.23333333333333	0
bin	-0.16666666666667	0
bin	-0.1	0
bin	-0.033333333333333	233063
bin	0.033333333333333	4009
bin	0.1	1999
bin	0.16666666666667	1345
bin	0.23333333333333	1061
bin	0.3	891
bin	0.36666666666667	737
bin	0.43333333333333	702
bin	0.5	648
bin	0.56666666666667	620
bin	0.63333333333333	621
bin	0.7	659
bin	0.76666666666667	697
bin	0.83333333333333	822
bin	0.9	1264
bin	0.96666666666667	76464
bin	1.0333333333333	0
bin	1.1	0
bin	1.1666666666667	0
bin	1.2333333333333	0
bin	1.3	0
bin	1.3666666666667	0
bin	1.4333333333333	0
bin	1.5	0
statistic scenarioPRJP1.node[80].wlan.radio 	minSNIR:histogram
field count 325602
field mean 2328.3631885595
field stddev 32989.683213673
field sum 758119710.92136
field sqrsum 3.5612299739077e+14
field min 0.00023654012190526
field max 7672262.7964996
attr source  minSNIR
attr title  "Min SNIR, histogram"
bin	-INF	0
bin	-926.855201487	0
bin	-803.21923029747	0
bin	-679.58325910794	0
bin	-555.9472879184	0
bin	-432.31131672887	0
bin	-308.67534553934	0
bin	-185.0393743498	0
bin	-61.403403160272	209159
bin	62.232568029261	40578
bin	185.86853921879	18233
bin	309.50451040833	8892
bin	433.14048159786	5798
bin	556.77645278739	4201
bin	680.41242397693	3197
bin	804.04839516646	2591
bin	927.68436635599	2100
bin	1051.3203375455	1625
bin	1174.9563087351	1388
bin	1298.5922799246	1255
bin	1422.2282511141	1084
bin	1545.8642223037	968
bin	1669.5001934932	807
bin	1793.1361646827	709
bin	1916.7721358723	621
bin	2040.4081070618	558
bin	2164.0440782513	605
bin	2287.6800494409	566
bin	2411.3160206304	528
bin	2534.9519918199	458
bin	2658.5879630095	470
bin	2782.223934199	19211
scalar scenarioPRJP1.node[80].lo0.lo 	droppedPkBitError:count 	0
attr interpolationmode  none
attr source  dropPkBitError
attr title  "packets dropped/bit error, count"
scalar scenarioPRJP1.node[80].lo0.lo 	droppedPkBitError:sum(packetBytes) 	0
attr interpolationmode  none
attr source  dropPkBitError
attr title  "packets dropped/bit error, sum(packetBytes)"
scalar scenarioPRJP1.node[80].lo0.lo 	rcvdPkFromHL:count 	127
attr interpolationmode  none
attr source  packetReceivedFromUpper
attr title  "packets received from higher layer, count"
scalar scenarioPRJP1.node[80].lo0.lo 	rcvdPkFromHL:sum(packetBytes) 	66040
attr interpolationmode  none
attr source  packetReceivedFromUpper
attr title  "packets received from higher layer, sum(packetBytes)"
scalar scenarioPRJP1.node[80].lo0.lo 	passedUpPk:count 	127
attr interpolationmode  none
attr source  packetSentToUpper
attr title  "packets passed to higher layer, count"
scalar scenarioPRJP1.node[80].lo0.lo 	passedUpPk:sum(packetBytes) 	66040
attr interpolationmode  none
attr source  packetSentToUpper
attr title  "packets passed to higher layer, sum(packetBytes)"
scalar scenarioPRJP1.node[1].app 	"Total sent" 	2609
scalar scenarioPRJP1.node[1].app 	"Total received" 	105
scalar scenarioPRJP1.node[1].app 	"Total deleted" 	1
scalar scenarioPRJP1.node[1].app 	dropPk:count 	1
attr interpolationmode  none
attr source  dropPk
attr title  "packets dropped, count"
scalar scenarioPRJP1.node[1].app 	dropPk:sum(packetBytes) 	512
attr interpolationmode  none
attr source  dropPk
attr title  "packets dropped, sum(packetBytes)"
scalar scenarioPRJP1.node[1].app 	outOfOrderPk:count 	8
attr interpolationmode  none
attr source  outOfOrderPk
attr title  "packets received out of order, count"
scalar scenarioPRJP1.node[1].app 	outOfOrderPk:sum(packetBytes) 	4096
attr interpolationmode  none
attr source  outOfOrderPk
attr title  "packets received out of order, sum(packetBytes)"
scalar scenarioPRJP1.node[1].app 	rcvdPk:count 	105
attr interpolationmode  none
attr source  rcvdPk
attr title  "packets received, count"
scalar scenarioPRJP1.node[1].app 	rcvdPk:sum(packetBytes) 	53760
attr interpolationmode  none
attr source  rcvdPk
attr title  "packets received, sum(packetBytes)"
statistic scenarioPRJP1.node[1].app 	endToEndDelay:histogram
field count 105
field mean 0.73780604844791
field stddev 1.561390208379
field sum 77.469635087031
field sqrsum 310.70326115173
field min 0.000964305872
field max 9.163167632796
attr interpolationmode  none
attr source  messageAge(rcvdPk)
attr title  "delay, histogram"
attr unit  s
bin	-INF	0
bin	-4.58013735759	0
bin	-3.9693238024617	0
bin	-3.3585102473335	0
bin	-2.7476966922052	0
bin	-2.1368831370769	0
bin	-1.5260695819487	0
bin	-0.9152560268204	0
bin	-0.30444247169213	77
bin	0.30637108343613	4
bin	0.9171846385644	7
bin	1.5279981936927	5
bin	2.1388117488209	4
bin	2.7496253039492	1
bin	3.3604388590775	2
bin	3.9712524142057	1
bin	4.582065969334	0
bin	5.1928795244623	1
bin	5.8036930795905	1
bin	6.4145066347188	1
bin	7.0253201898471	0
bin	7.6361337449753	0
bin	8.2469473001036	0
bin	8.8577608552319	1
bin	9.4685744103601	0
bin	10.079387965488	0
bin	10.690201520617	0
bin	11.301015075745	0
bin	11.911828630873	0
bin	12.522642186001	0
bin	13.13345574113	0
bin	13.744269296258	0
scalar scenarioPRJP1.node[1].app 	sentPk:count 	2609
attr interpolationmode  none
attr source  sentPk
attr title  "packets sent, count"
scalar scenarioPRJP1.node[1].app 	sentPk:sum(packetBytes) 	1335808
attr interpolationmode  none
attr source  sentPk
attr title  "packets sent, sum(packetBytes)"
scalar scenarioPRJP1.node[1].udp 	droppedPkBadChecksum:count 	0
attr interpolationmode  none
attr title  "packets dropped (checksum error), count"
scalar scenarioPRJP1.node[1].udp 	droppedPkWrongPort:count 	0
attr interpolationmode  none
attr title  "packets dropped (wrong port), count"
scalar scenarioPRJP1.node[1].udp 	passedUpPk:count 	114
attr interpolationmode  none
attr title  "packets passed up, count"
scalar scenarioPRJP1.node[1].udp 	rcvdPk:count 	114
attr interpolationmode  none
attr source  rcvdPk
attr title  "packets received, count"
scalar scenarioPRJP1.node[1].udp 	rcvdPk:sum(packetBytes) 	59280
attr interpolationmode  none
attr source  rcvdPk
attr title  "packets received, sum(packetBytes)"
scalar scenarioPRJP1.node[1].udp 	sentPk:count 	2609
attr interpolationmode  none
attr source  sentPk
attr title  "packets sent, count"
scalar scenarioPRJP1.node[1].udp 	sentPk:sum(packetBytes) 	1356680
attr interpolationmode  none
attr source  sentPk
attr title  "packets sent, sum(packetBytes)"
scalar scenarioPRJP1.node[1].networkLayer.arp 	failedARPResolution:count 	80
attr title  "ARP failed resolutions, count"
scalar scenarioPRJP1.node[1].networkLayer.arp 	completedARPResolution:count 	2296
attr title  "ARP completed resolutions, count"
scalar scenarioPRJP1.node[1].networkLayer.arp 	initiatedARPResolution:count 	159
attr title  "ARP initiated resolutions, count"
scalar scenarioPRJP1.node[1].networkLayer.arp 	sentReply:count 	66
attr title  "ARP replies sent, count"
scalar scenarioPRJP1.node[1].networkLayer.arp 	sentReq:count 	362
attr title  "ARP request sent, count"
scalar scenarioPRJP1.node[1].mobility 	startTime 	0.1
scalar scenarioPRJP1.node[1].mobility 	totalTime 	949.9
scalar scenarioPRJP1.node[1].mobility 	stopTime 	950
scalar scenarioPRJP1.node[1].mobility 	minSpeed 	2.4755261908493e-13
scalar scenarioPRJP1.node[1].mobility 	maxSpeed 	16.378022833638
scalar scenarioPRJP1.node[1].mobility 	totalDistance 	9186.9412863694
scalar scenarioPRJP1.node[1].mobility 	totalCO2Emission 	2415.3982245657
scalar scenarioPRJP1.node[1].wlan.mgmt 	dataQueueLen:max 	100
attr interpolationmode  sample-hold
attr title  "data queue length, max"
scalar scenarioPRJP1.node[1].wlan.mgmt 	dataQueueLen:timeavg 	0.44464601753674
attr interpolationmode  sample-hold
attr title  "data queue length, timeavg"
scalar scenarioPRJP1.node[1].wlan.mgmt 	dropPkByQueue:count 	98
attr interpolationmode  none
attr source  dropPkByQueue
attr title  "packets dropped by queue, count"
scalar scenarioPRJP1.node[1].wlan.mgmt 	dropPkByQueue:sum(packetBytes) 	17536
attr interpolationmode  none
attr source  dropPkByQueue
attr title  "packets dropped by queue, sum(packetBytes)"
scalar scenarioPRJP1.node[1].wlan.mac 	"number of received packets" 	9880
scalar scenarioPRJP1.node[1].wlan.mac 	"number of collisions" 	97142
scalar scenarioPRJP1.node[1].wlan.mac 	"number of internal collisions" 	0
scalar scenarioPRJP1.node[1].wlan.mac 	"number of retry for AC 0" 	28343
scalar scenarioPRJP1.node[1].wlan.mac 	"number of retry for AC 1" 	0
scalar scenarioPRJP1.node[1].wlan.mac 	"number of retry for AC 2" 	0
scalar scenarioPRJP1.node[1].wlan.mac 	"number of retry for AC 3" 	0
scalar scenarioPRJP1.node[1].wlan.mac 	"sent and received bits" 	17765344
scalar scenarioPRJP1.node[1].wlan.mac 	"sent packet within AC 0" 	5164
scalar scenarioPRJP1.node[1].wlan.mac 	"sent packet within AC 1" 	0
scalar scenarioPRJP1.node[1].wlan.mac 	"sent packet within AC 2" 	0
scalar scenarioPRJP1.node[1].wlan.mac 	"sent packet within AC 3" 	0
scalar scenarioPRJP1.node[1].wlan.mac 	"sent in TXOP " 	0
scalar scenarioPRJP1.node[1].wlan.mac 	"sentWithoutRetry AC 0" 	4525
scalar scenarioPRJP1.node[1].wlan.mac 	"sentWithoutRetry AC 1" 	0
scalar scenarioPRJP1.node[1].wlan.mac 	"sentWithoutRetry AC 2" 	0
scalar scenarioPRJP1.node[1].wlan.mac 	"sentWithoutRetry AC 3" 	0
scalar scenarioPRJP1.node[1].wlan.mac 	"numGivenUp AC 0" 	4492
scalar scenarioPRJP1.node[1].wlan.mac 	"numGivenUp AC 1" 	0
scalar scenarioPRJP1.node[1].wlan.mac 	"numGivenUp AC 2" 	0
scalar scenarioPRJP1.node[1].wlan.mac 	"numGivenUp AC 3" 	0
scalar scenarioPRJP1.node[1].wlan.mac 	"numDropped AC 0" 	467
scalar scenarioPRJP1.node[1].wlan.mac 	"numDropped AC 1" 	0
scalar scenarioPRJP1.node[1].wlan.mac 	"numDropped AC 2" 	0
scalar scenarioPRJP1.node[1].wlan.mac 	"numDropped AC 3" 	0
scalar scenarioPRJP1.node[1].wlan.mac 	rcvdPkFromLL:count 	359758
attr interpolationmode  none
attr source  packetReceivedFromLower
attr title  "packets received from lower layer, count"
scalar scenarioPRJP1.node[1].wlan.mac 	rcvdPkFromLL:sum(packetBytes) 	90978662
attr interpolationmode  none
attr source  packetReceivedFromLower
attr title  "packets received from lower layer, sum(packetBytes)"
scalar scenarioPRJP1.node[1].wlan.mac 	sentDownPk:count 	58702
attr interpolationmode  none
attr source  packetSentToLower
attr title  "packets sent to lower layer, count"
scalar scenarioPRJP1.node[1].wlan.mac 	sentDownPk:sum(packetBytes) 	15900256
attr interpolationmode  none
attr source  packetSentToLower
attr title  "packets sent to lower layer, sum(packetBytes)"
scalar scenarioPRJP1.node[1].wlan.mac 	rcvdPkFromHL:count 	20946
attr interpolationmode  none
attr source  packetReceivedFromUpper
attr title  "packets received from higher layer, count"
scalar scenarioPRJP1.node[1].wlan.mac 	rcvdPkFromHL:sum(packetBytes) 	4152648
attr interpolationmode  none
attr source  packetReceivedFromUpper
attr title  "packets received from higher layer, sum(packetBytes)"
scalar scenarioPRJP1.node[1].wlan.mac 	passedUpPk:count 	55602
attr interpolationmode  none
attr source  packetSentToUpper
attr title  "packets passed to higher layer, count"
scalar scenarioPRJP1.node[1].wlan.mac 	passedUpPk:sum(packetBytes) 	5268460
attr interpolationmode  none
attr source  packetSentToUpper
attr title  "packets passed to higher layer, sum(packetBytes)"
statistic scenarioPRJP1.node[1].wlan.radio 	radioChannel:histogram
[...]
attr interpolationmode  none
attr source  packetSentToUpper
attr title  "packets passed to higher layer, count"
scalar scenarioPRJP1.node[79].wlan.mac 	passedUpPk:sum(packetBytes) 	4457448
attr interpolationmode  none
attr source  packetSentToUpper
attr title  "packets passed to higher layer, sum(packetBytes)"
statistic scenarioPRJP1.node[79].wlan.radio 	radioChannel:histogram
field count 1
field mean 3
field stddev nan
field sum 3
field sqrsum 9
field min 3
field max 3
attr interpolationmode  sample-hold
attr source  radioChannelChanged
attr title  "Radio channel, histogram"
bin	-INF	0
bin	2	0
bin	3	1
bin	4	0
scalar scenarioPRJP1.node[79].wlan.radio 	transmissionState:count 	204072
attr interpolationmode  sample-hold
attr source  transmissionStateChanged
attr title  "Radio transmission state, count"
scalar scenarioPRJP1.node[79].wlan.radio 	receptionState:count 	708076
attr interpolationmode  sample-hold
attr source  receptionStateChanged
attr title  "Radio reception state, count"
scalar scenarioPRJP1.node[79].wlan.radio 	radioMode:count 	102038
attr interpolationmode  sample-hold
attr source  radioModeChanged
attr title  "Radio mode, count"
statistic scenarioPRJP1.node[79].wlan.radio 	symbolErrorRate:histogram
field count 0
field mean nan
field stddev nan
field sum 0
field sqrsum 0
field min nan
field max nan
attr source  symbolErrorRate
attr title  "Symbol error rate, histogram"
bin	-INF	0
bin	-0.5	0
bin	-0.46666666666667	0
bin	-0.43333333333333	0
bin	-0.4	0
bin	-0.36666666666667	0
bin	-0.33333333333333	0
bin	-0.3	0
bin	-0.26666666666667	0
bin	-0.23333333333333	0
bin	-0.2	0
bin	-0.16666666666667	0
bin	-0.13333333333333	0
bin	-0.1	0
bin	-0.066666666666667	0
bin	-0.033333333333333	0
bin	0	0
bin	0.033333333333333	0
bin	0.066666666666667	0
bin	0.1	0
bin	0.13333333333333	0
bin	0.16666666666667	0
bin	0.2	0
bin	0.23333333333333	0
bin	0.26666666666667	0
bin	0.3	0
bin	0.33333333333333	0
bin	0.36666666666667	0
bin	0.4	0
bin	0.43333333333333	0
bin	0.46666666666667	0
bin	0.5	0
statistic scenarioPRJP1.node[79].wlan.radio 	bitErrorRate:histogram
field count 0
field mean nan
field stddev nan
field sum 0
field sqrsum 0
field min nan
field max nan
attr source  bitErrorRate
attr title  "Bit error rate, histogram"
bin	-INF	0
bin	-0.5	0
bin	-0.46666666666667	0
bin	-0.43333333333333	0
bin	-0.4	0
bin	-0.36666666666667	0
bin	-0.33333333333333	0
bin	-0.3	0
bin	-0.26666666666667	0
bin	-0.23333333333333	0
bin	-0.2	0
bin	-0.16666666666667	0
bin	-0.13333333333333	0
bin	-0.1	0
bin	-0.066666666666667	0
bin	-0.033333333333333	0
bin	0	0
bin	0.033333333333333	0
bin	0.066666666666667	0
bin	0.1	0
bin	0.13333333333333	0
bin	0.16666666666667	0
bin	0.2	0
bin	0.23333333333333	0
bin	0.26666666666667	0
bin	0.3	0
bin	0.33333333333333	0
bin	0.36666666666667	0
bin	0.4	0
bin	0.43333333333333	0
bin	0.46666666666667	0
bin	0.5	0
statistic scenarioPRJP1.node[79].wlan.radio 	packetErrorRate:histogram
field count 279719
field mean 0.25312716933635
field stddev 0.42552294606434
field sum 70804.478679595
field sqrsum 68571.013322848
field min 0
field max 1
attr source  packetErrorRate
attr title  "Packet error rate, histogram"
bin	-INF	0
bin	-0.5	0
bin	-0.43333333333333	0
bin	-0.36666666666667	0
bin	-0.3	0
bin	-0.23333333333333	0
bin	-0.16666666666667	0
bin	-0.1	0
bin	-0.033333333333333	199809
bin	0.033333333333333	3654
bin	0.1	1792
bin	0.16666666666667	1254
bin	0.23333333333333	959
bin	0.3	828
bin	0.36666666666667	707
bin	0.43333333333333	643
bin	0.5	573
bin	0.56666666666667	589
bin	0.63333333333333	586
bin	0.7	599
bin	0.76666666666667	670
bin	0.83333333333333	745
bin	0.9	1232
bin	0.96666666666667	65079
bin	1.0333333333333	0
bin	1.1	0
bin	1.1666666666667	0
bin	1.2333333333333	0
bin	1.3	0
bin	1.3666666666667	0
bin	1.4333333333333	0
bin	1.5	0
statistic scenarioPRJP1.node[79].wlan.radio 	minSNIR:histogram
field count 279719
field mean 1397.9283685323
field stddev 18332.43256827
field sum 391027125.31749
field sqrsum 94553717375338
field min 0.000168161254092
field max 753239.71923443
attr source  minSNIR
attr title  "Min SNIR, histogram"
bin	-INF	0
bin	-284.42562729385	0
bin	-246.33825065847	0
bin	-208.2508740231	0
bin	-170.16349738772	0
bin	-132.07612075234	0
bin	-93.988744116958	0
bin	-55.901367481579	0
bin	-17.813990846199	161425
bin	20.27338578918	32703
bin	58.360762424559	12129
bin	96.448139059938	8347
bin	134.53551569532	7966
bin	172.6228923307	5319
bin	210.71026896608	3809
bin	248.79764560145	3047
bin	286.88502223683	2587
bin	324.97239887221	2003
bin	363.05977550759	1808
bin	401.14715214297	1597
bin	439.23452877835	1427
bin	477.32190541373	1277
bin	515.40928204911	1170
bin	553.49665868449	1111
bin	591.58403531987	1111
bin	629.67141195525	1023
bin	667.75878859062	899
bin	705.846165226	803
bin	743.93354186138	819
bin	782.02091849676	739
bin	820.10829513214	713
bin	858.19567176752	25887
scalar scenarioPRJP1.node[79].lo0.lo 	droppedPkBitError:count 	0
attr interpolationmode  none
attr source  dropPkBitError
attr title  "packets dropped/bit error, count"
scalar scenarioPRJP1.node[79].lo0.lo 	droppedPkBitError:sum(packetBytes) 	0
attr interpolationmode  none
attr source  dropPkBitError
attr title  "packets dropped/bit error, sum(packetBytes)"
scalar scenarioPRJP1.node[79].lo0.lo 	rcvdPkFromHL:count 	73
attr interpolationmode  none
attr source  packetReceivedFromUpper
attr title  "packets received from higher layer, count"
scalar scenarioPRJP1.node[79].lo0.lo 	rcvdPkFromHL:sum(packetBytes) 	37960
attr interpolationmode  none
attr source  packetReceivedFromUpper
attr title  "packets received from higher layer, sum(packetBytes)"
scalar scenarioPRJP1.node[79].lo0.lo 	passedUpPk:count 	73
attr interpolationmode  none
attr source  packetSentToUpper
attr title  "packets passed to higher layer, count"
scalar scenarioPRJP1.node[79].lo0.lo 	passedUpPk:sum(packetBytes) 	37960
attr interpolationmode  none
attr source  packetSentToUpper
attr title  "packets passed to higher layer, sum(packetBytes)"
scalar scenarioPRJP1.node[99].app 	"Total sent" 	2619
scalar scenarioPRJP1.node[99].app 	"Total received" 	94
scalar scenarioPRJP1.node[99].app 	"Total deleted" 	1
scalar scenarioPRJP1.node[99].app 	dropPk:count 	1
attr interpolationmode  none
attr source  dropPk
attr title  "packets dropped, count"
scalar scenarioPRJP1.node[99].app 	dropPk:sum(packetBytes) 	512
attr interpolationmode  none
attr source  dropPk
attr title  "packets dropped, sum(packetBytes)"
scalar scenarioPRJP1.node[99].app 	outOfOrderPk:count 	2
attr interpolationmode  none
attr source  outOfOrderPk
attr title  "packets received out of order, count"
scalar scenarioPRJP1.node[99].app 	outOfOrderPk:sum(packetBytes) 	1024
attr interpolationmode  none
attr source  outOfOrderPk
attr title  "packets received out of order, sum(packetBytes)"
scalar scenarioPRJP1.node[99].app 	rcvdPk:count 	94
attr interpolationmode  none
attr source  rcvdPk
attr title  "packets received, count"
scalar scenarioPRJP1.node[99].app 	rcvdPk:sum(packetBytes) 	48128
attr interpolationmode  none
attr source  rcvdPk
attr title  "packets received, sum(packetBytes)"
statistic scenarioPRJP1.node[99].app 	endToEndDelay:histogram
field count 94
field mean 0.99862165540867
field stddev 3.0317685457328
field sum 93.870435608415
field sqrsum 948.56175768643
field min 0.002037240916
field max 19.031793949013
attr interpolationmode  none
attr source  messageAge(rcvdPk)
attr title  "delay, histogram"
attr unit  s
bin	-INF	0
bin	-9.5128411131325	0
bin	-8.244190665926	0
bin	-6.9755402187196	0
bin	-5.7068897715131	0
bin	-4.4382393243066	0
bin	-3.1695888771002	0
bin	-1.9009384298937	0
bin	-0.63228798268723	77
bin	0.63636246451923	6
bin	1.9050129117257	3
bin	3.1736633589322	3
bin	4.4423138061386	1
bin	5.7109642533451	0
bin	6.9796147005516	0
bin	8.248265147758	0
bin	9.5169155949645	0
bin	10.785566042171	0
bin	12.054216489377	2
bin	13.322866936584	1
bin	14.59151738379	0
bin	15.860167830997	0
bin	17.128818278203	0
bin	18.39746872541	1
bin	19.666119172616	0
bin	20.934769619823	0
bin	22.203420067029	0
bin	23.472070514236	0
bin	24.740720961442	0
bin	26.009371408649	0
bin	27.278021855855	0
bin	28.546672303061	0
scalar scenarioPRJP1.node[99].app 	sentPk:count 	2619
attr interpolationmode  none
attr source  sentPk
attr title  "packets sent, count"
scalar scenarioPRJP1.node[99].app 	sentPk:sum(packetBytes) 	1340928
attr interpolationmode  none
attr source  sentPk
attr title  "packets sent, sum(packetBytes)"
scalar scenarioPRJP1.node[99].udp 	droppedPkBadChecksum:count 	0
attr interpolationmode  none
attr title  "packets dropped (checksum error), count"
scalar scenarioPRJP1.node[99].udp 	droppedPkWrongPort:count 	0
attr interpolationmode  none
attr title  "packets dropped (wrong port), count"
scalar scenarioPRJP1.node[99].udp 	passedUpPk:count 	97
attr interpolationmode  none
attr title  "packets passed up, count"
scalar scenarioPRJP1.node[99].udp 	rcvdPk:count 	97
attr interpolationmode  none
attr source  rcvdPk
attr title  "packets received, count"
scalar scenarioPRJP1.node[99].udp 	rcvdPk:sum(packetBytes) 	50440
attr interpolationmode  none
attr source  rcvdPk
attr title  "packets received, sum(packetBytes)"
scalar scenarioPRJP1.node[99].udp 	sentPk:count 	2619
attr interpolationmode  none
attr source  sentPk
attr title  "packets sent, count"
scalar scenarioPRJP1.node[99].udp 	sentPk:sum(packetBytes) 	1361880
attr interpolationmode  none
attr source  sentPk
attr title  "packets sent, sum(packetBytes)"
scalar scenarioPRJP1.node[99].networkLayer.arp 	failedARPResolution:count 	78
attr title  "ARP failed resolutions, count"
scalar scenarioPRJP1.node[99].networkLayer.arp 	completedARPResolution:count 	1868
attr title  "ARP completed resolutions, count"
scalar scenarioPRJP1.node[99].networkLayer.arp 	initiatedARPResolution:count 	163
attr title  "ARP initiated resolutions, count"
scalar scenarioPRJP1.node[99].networkLayer.arp 	sentReply:count 	83
attr title  "ARP replies sent, count"
scalar scenarioPRJP1.node[99].networkLayer.arp 	sentReq:count 	353
attr title  "ARP request sent, count"
scalar scenarioPRJP1.node[99].mobility 	startTime 	9.9
scalar scenarioPRJP1.node[99].mobility 	totalTime 	940.1
scalar scenarioPRJP1.node[99].mobility 	stopTime 	950
scalar scenarioPRJP1.node[99].mobility 	minSpeed 	2.4755451293518e-13
scalar scenarioPRJP1.node[99].mobility 	maxSpeed 	21.671940352945
scalar scenarioPRJP1.node[99].mobility 	totalDistance 	11160.001586428
scalar scenarioPRJP1.node[99].mobility 	totalCO2Emission 	3102.3866280582
scalar scenarioPRJP1.node[99].wlan.mgmt 	dataQueueLen:max 	12
attr interpolationmode  sample-hold
attr title  "data queue length, max"
scalar scenarioPRJP1.node[99].wlan.mgmt 	dataQueueLen:timeavg 	0
attr interpolationmode  sample-hold
attr title  "data queue length, timeavg"
scalar scenarioPRJP1.node[99].wlan.mgmt 	dropPkByQueue:count 	0
attr interpolationmode  none
attr source  dropPkByQueue
attr title  "packets dropped by queue, count"
scalar scenarioPRJP1.node[99].wlan.mgmt 	dropPkByQueue:sum(packetBytes) 	0
attr interpolationmode  none
attr source  dropPkByQueue
attr title  "packets dropped by queue, sum(packetBytes)"
scalar scenarioPRJP1.node[99].wlan.mac 	"number of received packets" 	9479
scalar scenarioPRJP1.node[99].wlan.mac 	"number of collisions" 	80408
scalar scenarioPRJP1.node[99].wlan.mac 	"number of internal collisions" 	0
scalar scenarioPRJP1.node[99].wlan.mac 	"number of retry for AC 0" 	26497
scalar scenarioPRJP1.node[99].wlan.mac 	"number of retry for AC 1" 	0
scalar scenarioPRJP1.node[99].wlan.mac 	"number of retry for AC 2" 	0
scalar scenarioPRJP1.node[99].wlan.mac 	"number of retry for AC 3" 	0
scalar scenarioPRJP1.node[99].wlan.mac 	"sent and received bits" 	15321728
scalar scenarioPRJP1.node[99].wlan.mac 	"sent packet within AC 0" 	4046
scalar scenarioPRJP1.node[99].wlan.mac 	"sent packet within AC 1" 	0
scalar scenarioPRJP1.node[99].wlan.mac 	"sent packet within AC 2" 	0
scalar scenarioPRJP1.node[99].wlan.mac 	"sent packet within AC 3" 	0
scalar scenarioPRJP1.node[99].wlan.mac 	"sent in TXOP " 	0
scalar scenarioPRJP1.node[99].wlan.mac 	"sentWithoutRetry AC 0" 	3535
scalar scenarioPRJP1.node[99].wlan.mac 	"sentWithoutRetry AC 1" 	0
scalar scenarioPRJP1.node[99].wlan.mac 	"sentWithoutRetry AC 2" 	0
scalar scenarioPRJP1.node[99].wlan.mac 	"sentWithoutRetry AC 3" 	0
scalar scenarioPRJP1.node[99].wlan.mac 	"numGivenUp AC 0" 	4222
scalar scenarioPRJP1.node[99].wlan.mac 	"numGivenUp AC 1" 	0
scalar scenarioPRJP1.node[99].wlan.mac 	"numGivenUp AC 2" 	0
scalar scenarioPRJP1.node[99].wlan.mac 	"numGivenUp AC 3" 	0
scalar scenarioPRJP1.node[99].wlan.mac 	"numDropped AC 0" 	0
scalar scenarioPRJP1.node[99].wlan.mac 	"numDropped AC 1" 	0
scalar scenarioPRJP1.node[99].wlan.mac 	"numDropped AC 2" 	0
scalar scenarioPRJP1.node[99].wlan.mac 	"numDropped AC 3" 	0
scalar scenarioPRJP1.node[99].wlan.mac 	rcvdPkFromLL:count 	295694
attr interpolationmode  none
attr source  packetReceivedFromLower
attr title  "packets received from lower layer, count"
scalar scenarioPRJP1.node[99].wlan.mac 	rcvdPkFromLL:sum(packetBytes) 	79645310
attr interpolationmode  none
attr source  packetReceivedFromLower
attr title  "packets received from lower layer, sum(packetBytes)"
scalar scenarioPRJP1.node[99].wlan.mac 	sentDownPk:count 	53994
attr interpolationmode  none
attr source  packetSentToLower
attr title  "packets sent to lower layer, count"
scalar scenarioPRJP1.node[99].wlan.mac 	sentDownPk:sum(packetBytes) 	14223730
attr interpolationmode  none
attr source  packetSentToLower
attr title  "packets sent to lower layer, sum(packetBytes)"
scalar scenarioPRJP1.node[99].wlan.mac 	rcvdPkFromHL:count 	18018
attr interpolationmode  none
attr source  packetReceivedFromUpper
attr title  "packets received from higher layer, count"
scalar scenarioPRJP1.node[99].wlan.mac 	rcvdPkFromHL:sum(packetBytes) 	3581984
attr interpolationmode  none
attr source  packetReceivedFromUpper
attr title  "packets received from higher layer, sum(packetBytes)"
scalar scenarioPRJP1.node[99].wlan.mac 	passedUpPk:count 	37321
attr interpolationmode  none
attr source  packetSentToUpper
attr title  "packets passed to higher layer, count"
scalar scenarioPRJP1.node[99].wlan.mac 	passedUpPk:sum(packetBytes) 	3610236
attr interpolationmode  none
attr source  packetSentToUpper
attr title  "packets passed to higher layer, sum(packetBytes)"
statistic scenarioPRJP1.node[99].wlan.radio 	radioChannel:histogram
field count 1
field mean 3
field stddev nan
field sum 3
field sqrsum 9
field min 3
field max 3
attr interpolationmode  sample-hold
attr source  radioChannelChanged
attr title  "Radio channel, histogram"
bin	-INF	0
bin	2	0
bin	3	1
bin	4	0
scalar scenarioPRJP1.node[99].wlan.radio 	transmissionState:count 	215976
attr interpolationmode  sample-hold
attr source  transmissionStateChanged
attr title  "Radio transmission state, count"
scalar scenarioPRJP1.node[99].wlan.radio 	receptionState:count 	752156
attr interpolationmode  sample-hold
attr source  receptionStateChanged
attr title  "Radio reception state, count"
scalar scenarioPRJP1.node[99].wlan.radio 	radioMode:count 	107990
attr interpolationmode  sample-hold
attr source  radioModeChanged
attr title  "Radio mode, count"
statistic scenarioPRJP1.node[99].wlan.radio 	symbolErrorRate:histogram
field count 0
field mean nan
field stddev nan
field sum 0
field sqrsum 0
field min nan
field max nan
attr source  symbolErrorRate
attr title  "Symbol error rate, histogram"
bin	-INF	0
bin	-0.5	0
bin	-0.46666666666667	0
bin	-0.43333333333333	0
bin	-0.4	0
bin	-0.36666666666667	0
bin	-0.33333333333333	0
bin	-0.3	0
bin	-0.26666666666667	0
bin	-0.23333333333333	0
bin	-0.2	0
bin	-0.16666666666667	0
bin	-0.13333333333333	0
bin	-0.1	0
bin	-0.066666666666667	0
bin	-0.033333333333333	0
bin	0	0
bin	0.033333333333333	0
bin	0.066666666666667	0
bin	0.1	0
bin	0.13333333333333	0
bin	0.16666666666667	0
bin	0.2	0
bin	0.23333333333333	0
bin	0.26666666666667	0
bin	0.3	0
bin	0.33333333333333	0
bin	0.36666666666667	0
bin	0.4	0
bin	0.43333333333333	0
bin	0.46666666666667	0
bin	0.5	0
statistic scenarioPRJP1.node[99].wlan.radio 	bitErrorRate:histogram
field count 0
field mean nan
field stddev nan
field sum 0
field sqrsum 0
field min nan
field max nan
attr source  bitErrorRate
attr title  "Bit error rate, histogram"
bin	-INF	0
bin	-0.5	0
bin	-0.46666666666667	0
bin	-0.43333333333333	0
bin	-0.4	0
bin	-0.36666666666667	0
bin	-0.33333333333333	0
bin	-0.3	0
bin	-0.26666666666667	0
bin	-0.23333333333333	0
bin	-0.2	0
bin	-0.16666666666667	0
bin	-0.13333333333333	0
bin	-0.1	0
bin	-0.066666666666667	0
bin	-0.033333333333333	0
bin	0	0
bin	0.033333333333333	0
bin	0.066666666666667	0
bin	0.1	0
bin	0.13333333333333	0
bin	0.16666666666667	0
bin	0.2	0
bin	0.23333333333333	0
bin	0.26666666666667	0
bin	0.3	0
bin	0.33333333333333	0
bin	0.36666666666667	0
bin	0.4	0
bin	0.43333333333333	0
bin	0.46666666666667	0
bin	0.5	0
statistic scenarioPRJP1.node[99].wlan.radio 	packetErrorRate:histogram
field count 295694
field mean 0.25613343559436
field stddev 0.42708452892372
field sum 75737.120104639
field sqrsum 73333.565282022
field min 0
field max 1
attr source  packetErrorRate
attr title  "Packet error rate, histogram"
bin	-INF	0
bin	-0.5	0
bin	-0.43333333333333	0
bin	-0.36666666666667	0
bin	-0.3	0
bin	-0.23333333333333	0
bin	-0.16666666666667	0
bin	-0.1	0
bin	-0.033333333333333	210079
bin	0.033333333333333	4080
bin	0.1	1926
bin	0.16666666666667	1299
bin	0.23333333333333	1029
bin	0.3	840
bin	0.36666666666667	757
bin	0.43333333333333	718
bin	0.5	683
bin	0.56666666666667	630
bin	0.63333333333333	579
bin	0.7	649
bin	0.76666666666667	694
bin	0.83333333333333	862
bin	0.9	1293
bin	0.96666666666667	69576
bin	1.0333333333333	0
bin	1.1	0
bin	1.1666666666667	0
bin	1.2333333333333	0
bin	1.3	0
bin	1.3666666666667	0
bin	1.4333333333333	0
bin	1.5	0
statistic scenarioPRJP1.node[99].wlan.radio 	minSNIR:histogram
field count 295694
field mean 1575.9195763327
field stddev 49920.858885071
field sum 465989963.20411
field sqrsum 7.3762856735443e+14
field min 0.00016921674869791
field max 7672262.7964996
attr source  minSNIR
attr title  "Min SNIR, histogram"
bin	-INF	0
bin	-81.913870454039	0
bin	-70.84128790513	0
bin	-59.768705356221	0
bin	-48.696122807311	0
bin	-37.623540258402	0
bin	-26.550957709493	0
bin	-15.478375160584	0
bin	-4.4057926116748	118436
bin	6.6667899372343	45099
bin	17.739372486143	17176
bin	28.811955035053	10608
bin	39.884537583962	7372
bin	50.957120132871	5727
bin	62.02970268178	4492
bin	73.102285230689	3863
bin	84.174867779598	3309
bin	95.247450328507	2953
bin	106.32003287742	2499
bin	117.39261542633	2612
bin	128.46519797523	3292
bin	139.53778052414	3047
bin	150.61036307305	2752
bin	161.68294562196	2518
bin	172.75552817087	2450
bin	183.82811071978	2083
bin	194.90069326869	1825
bin	205.9732758176	1755
bin	217.04585836651	1650
bin	228.11844091542	1442
bin	239.19102346433	1489
bin	250.26360601324	47245
scalar scenarioPRJP1.node[99].lo0.lo 	droppedPkBitError:count 	0
attr interpolationmode  none
attr source  dropPkBitError
attr title  "packets dropped/bit error, count"
scalar scenarioPRJP1.node[99].lo0.lo 	droppedPkBitError:sum(packetBytes) 	0
attr interpolationmode  none
attr source  dropPkBitError
attr title  "packets dropped/bit error, sum(packetBytes)"
scalar scenarioPRJP1.node[99].lo0.lo 	rcvdPkFromHL:count 	97
attr interpolationmode  none
attr source  packetReceivedFromUpper
attr title  "packets received from higher layer, count"
scalar scenarioPRJP1.node[99].lo0.lo 	rcvdPkFromHL:sum(packetBytes) 	50440
attr interpolationmode  none
attr source  packetReceivedFromUpper
attr title  "packets received from higher layer, sum(packetBytes)"
scalar scenarioPRJP1.node[99].lo0.lo 	passedUpPk:count 	97
attr interpolationmode  none
attr source  packetSentToUpper
attr title  "packets passed to higher layer, count"
scalar scenarioPRJP1.node[99].lo0.lo 	passedUpPk:sum(packetBytes) 	50440
attr interpolationmode  none
attr source  packetSentToUpper
attr title  "packets passed to higher layer, sum(packetBytes)"
