version 2
run DSRUU-FS-100n-6-20150728-07:49:41-3337
attr configname DSRUU-FS-100n
attr datetime 20150728-07:49:41
attr experiment DSRUU-FS-100n
attr inifile omnetpp.ini
attr iterationvars ""
attr iterationvars2 $repetition=6
attr measurement ""
attr network Prj_Part1_propag.scenarioPRJP1
attr processid 3337
attr repetition 6
attr replication #6
attr resultdir results
attr runnumber 6
attr seedset 6

scalar scenarioPRJP1.node[60].app 	"Total sent" 	195
scalar scenarioPRJP1.node[60].app 	"Total received" 	10
scalar scenarioPRJP1.node[60].app 	"Total deleted" 	0
scalar scenarioPRJP1.node[60].app 	dropPk:count 	0
attr interpolationmode  none
attr source  dropPk
attr title  "packets dropped, count"
scalar scenarioPRJP1.node[60].app 	dropPk:sum(packetBytes) 	0
attr interpolationmode  none
attr source  dropPk
attr title  "packets dropped, sum(packetBytes)"
scalar scenarioPRJP1.node[60].app 	outOfOrderPk:count 	4
attr interpolationmode  none
attr source  outOfOrderPk
attr title  "packets received out of order, count"
scalar scenarioPRJP1.node[60].app 	outOfOrderPk:sum(packetBytes) 	2048
attr interpolationmode  none
attr source  outOfOrderPk
attr title  "packets received out of order, sum(packetBytes)"
scalar scenarioPRJP1.node[60].app 	rcvdPk:count 	10
attr interpolationmode  none
attr source  rcvdPk
attr title  "packets received, count"
scalar scenarioPRJP1.node[60].app 	rcvdPk:sum(packetBytes) 	5120
attr interpolationmode  none
attr source  rcvdPk
attr title  "packets received, sum(packetBytes)"
statistic scenarioPRJP1.node[60].app 	endToEndDelay:histogram
field count 10
field mean 0.4383164179985
field stddev 0.53607278958631
field sum 4.383164179985
field sqrsum 4.507579144484
field min 0.001068433554
field max 1.405771506386
attr interpolationmode  none
attr source  messageAge(rcvdPk)
attr title  "delay, histogram"
attr unit  s
bin	-INF	0
bin	-0.701283102862	0
bin	-0.60763623133987	0
bin	-0.51398935981773	0
bin	-0.4203424882956	0
bin	-0.32669561677347	0
bin	-0.23304874525133	0
bin	-0.1394018737292	0
bin	-0.045755002207067	3
bin	0.047891869315067	2
bin	0.1415387408372	1
bin	0.23518561235933	0
bin	0.32883248388147	0
bin	0.4224793554036	0
bin	0.51612622692573	0
bin	0.60977309844787	1
bin	0.70341996997	0
bin	0.79706684149213	0
bin	0.89071371301427	1
bin	0.9843605845364	0
bin	1.0780074560585	1
bin	1.1716543275807	0
bin	1.2653011991028	0
bin	1.3589480706249	1
bin	1.4525949421471	0
bin	1.5462418136692	0
bin	1.6398886851913	0
bin	1.7335355567135	0
bin	1.8271824282356	0
bin	1.9208292997577	0
bin	2.0144761712799	0
bin	2.108123042802	0
scalar scenarioPRJP1.node[60].app 	sentPk:count 	195
attr interpolationmode  none
attr source  sentPk
attr title  "packets sent, count"
scalar scenarioPRJP1.node[60].app 	sentPk:sum(packetBytes) 	99840
attr interpolationmode  none
attr source  sentPk
attr title  "packets sent, sum(packetBytes)"
scalar scenarioPRJP1.node[60].udp 	droppedPkBadChecksum:count 	0
attr interpolationmode  none
attr title  "packets dropped (checksum error), count"
scalar scenarioPRJP1.node[60].udp 	droppedPkWrongPort:count 	0
attr interpolationmode  none
attr title  "packets dropped (wrong port), count"
scalar scenarioPRJP1.node[60].udp 	passedUpPk:count 	14
attr interpolationmode  none
attr title  "packets passed up, count"
scalar scenarioPRJP1.node[60].udp 	rcvdPk:count 	14
attr interpolationmode  none
attr source  rcvdPk
attr title  "packets received, count"
scalar scenarioPRJP1.node[60].udp 	rcvdPk:sum(packetBytes) 	7280
attr interpolationmode  none
attr source  rcvdPk
attr title  "packets received, sum(packetBytes)"
scalar scenarioPRJP1.node[60].udp 	sentPk:count 	195
attr interpolationmode  none
attr source  sentPk
attr title  "packets sent, count"
scalar scenarioPRJP1.node[60].udp 	sentPk:sum(packetBytes) 	101400
attr interpolationmode  none
attr source  sentPk
attr title  "packets sent, sum(packetBytes)"
scalar scenarioPRJP1.node[60].networkLayer.arp 	failedARPResolution:count 	2
attr title  "ARP failed resolutions, count"
scalar scenarioPRJP1.node[60].networkLayer.arp 	completedARPResolution:count 	109
attr title  "ARP completed resolutions, count"
scalar scenarioPRJP1.node[60].networkLayer.arp 	initiatedARPResolution:count 	17
attr title  "ARP initiated resolutions, count"
scalar scenarioPRJP1.node[60].networkLayer.arp 	sentReply:count 	4
attr title  "ARP replies sent, count"
scalar scenarioPRJP1.node[60].networkLayer.arp 	sentReq:count 	26
attr title  "ARP request sent, count"
scalar scenarioPRJP1.node[60].mobility 	startTime 	7.2
scalar scenarioPRJP1.node[60].mobility 	totalTime 	91.9
scalar scenarioPRJP1.node[60].mobility 	stopTime 	99.2
scalar scenarioPRJP1.node[60].mobility 	minSpeed 	0.27919283853192
scalar scenarioPRJP1.node[60].mobility 	maxSpeed 	20.619499239538
scalar scenarioPRJP1.node[60].mobility 	totalDistance 	1483.597504718
scalar scenarioPRJP1.node[60].mobility 	totalCO2Emission 	397.19925684256
scalar scenarioPRJP1.node[60].wlan.mgmt 	dataQueueLen:max 	19
attr interpolationmode  sample-hold
attr title  "data queue length, max"
scalar scenarioPRJP1.node[60].wlan.mgmt 	dataQueueLen:timeavg 	0.097190195885641
attr interpolationmode  sample-hold
attr title  "data queue length, timeavg"
scalar scenarioPRJP1.node[60].wlan.mgmt 	dropPkByQueue:count 	0
attr interpolationmode  none
attr source  dropPkByQueue
attr title  "packets dropped by queue, count"
scalar scenarioPRJP1.node[60].wlan.mgmt 	dropPkByQueue:sum(packetBytes) 	0
attr interpolationmode  none
attr source  dropPkByQueue
attr title  "packets dropped by queue, sum(packetBytes)"
scalar scenarioPRJP1.node[60].wlan.mac 	"number of received packets" 	793
scalar scenarioPRJP1.node[60].wlan.mac 	"number of collisions" 	15101
scalar scenarioPRJP1.node[60].wlan.mac 	"number of internal collisions" 	0
scalar scenarioPRJP1.node[60].wlan.mac 	"number of retry for AC 0" 	1990
scalar scenarioPRJP1.node[60].wlan.mac 	"number of retry for AC 1" 	0
scalar scenarioPRJP1.node[60].wlan.mac 	"number of retry for AC 2" 	0
scalar scenarioPRJP1.node[60].wlan.mac 	"number of retry for AC 3" 	0
scalar scenarioPRJP1.node[60].wlan.mac 	"sent and received bits" 	2814336
scalar scenarioPRJP1.node[60].wlan.mac 	"sent packet within AC 0" 	342
scalar scenarioPRJP1.node[60].wlan.mac 	"sent packet within AC 1" 	0
scalar scenarioPRJP1.node[60].wlan.mac 	"sent packet within AC 2" 	0
scalar scenarioPRJP1.node[60].wlan.mac 	"sent packet within AC 3" 	0
scalar scenarioPRJP1.node[60].wlan.mac 	"sent in TXOP " 	0
scalar scenarioPRJP1.node[60].wlan.mac 	"sentWithoutRetry AC 0" 	287
scalar scenarioPRJP1.node[60].wlan.mac 	"sentWithoutRetry AC 1" 	0
scalar scenarioPRJP1.node[60].wlan.mac 	"sentWithoutRetry AC 2" 	0
scalar scenarioPRJP1.node[60].wlan.mac 	"sentWithoutRetry AC 3" 	0
scalar scenarioPRJP1.node[60].wlan.mac 	"numGivenUp AC 0" 	312
scalar scenarioPRJP1.node[60].wlan.mac 	"numGivenUp AC 1" 	0
scalar scenarioPRJP1.node[60].wlan.mac 	"numGivenUp AC 2" 	0
scalar scenarioPRJP1.node[60].wlan.mac 	"numGivenUp AC 3" 	0
scalar scenarioPRJP1.node[60].wlan.mac 	"numDropped AC 0" 	76
scalar scenarioPRJP1.node[60].wlan.mac 	"numDropped AC 1" 	0
scalar scenarioPRJP1.node[60].wlan.mac 	"numDropped AC 2" 	0
scalar scenarioPRJP1.node[60].wlan.mac 	"numDropped AC 3" 	0
scalar scenarioPRJP1.node[60].wlan.mac 	rcvdPkFromLL:count 	52883
attr interpolationmode  none
attr source  packetReceivedFromLower
attr title  "packets received from lower layer, count"
scalar scenarioPRJP1.node[60].wlan.mac 	rcvdPkFromLL:sum(packetBytes) 	8596808
attr interpolationmode  none
attr source  packetReceivedFromLower
attr title  "packets received from lower layer, sum(packetBytes)"
scalar scenarioPRJP1.node[60].wlan.mac 	sentDownPk:count 	7030
attr interpolationmode  none
attr source  packetSentToLower
attr title  "packets sent to lower layer, count"
scalar scenarioPRJP1.node[60].wlan.mac 	sentDownPk:sum(packetBytes) 	1068882
attr interpolationmode  none
attr source  packetSentToLower
attr title  "packets sent to lower layer, sum(packetBytes)"
scalar scenarioPRJP1.node[60].wlan.mac 	rcvdPkFromHL:count 	4323
attr interpolationmode  none
attr source  packetReceivedFromUpper
attr title  "packets received from higher layer, count"
scalar scenarioPRJP1.node[60].wlan.mac 	rcvdPkFromHL:sum(packetBytes) 	455532
attr interpolationmode  none
attr source  packetReceivedFromUpper
attr title  "packets received from higher layer, sum(packetBytes)"
scalar scenarioPRJP1.node[60].wlan.mac 	passedUpPk:count 	19212
attr interpolationmode  none
attr source  packetSentToUpper
attr title  "packets passed to higher layer, count"
scalar scenarioPRJP1.node[60].wlan.mac 	passedUpPk:sum(packetBytes) 	1464368
attr interpolationmode  none
attr source  packetSentToUpper
attr title  "packets passed to higher layer, sum(packetBytes)"
statistic scenarioPRJP1.node[60].wlan.radio 	radioChannel:histogram
field count 1
field mean 3
field stddev -nan
field sum 3
field sqrsum 9
field min 3
field max 3
attr interpolationmode  sample-hold
attr source  radioChannelChanged
attr title  "Radio channel, histogram"
bin	-INF	0
bin	2	0
bin	3	1
bin	4	0
scalar scenarioPRJP1.node[60].wlan.radio 	transmissionState:count 	28120
attr interpolationmode  sample-hold
attr source  transmissionStateChanged
attr title  "Radio transmission state, count"
scalar scenarioPRJP1.node[60].wlan.radio 	receptionState:count 	123242
attr interpolationmode  sample-hold
attr source  receptionStateChanged
attr title  "Radio reception state, count"
scalar scenarioPRJP1.node[60].wlan.radio 	radioMode:count 	14062
attr interpolationmode  sample-hold
attr source  radioModeChanged
attr title  "Radio mode, count"
statistic scenarioPRJP1.node[60].wlan.radio 	symbolErrorRate:histogram
field count 0
field mean -nan
field stddev -nan
field sum 0
field sqrsum 0
field min -nan
field max -nan
attr source  symbolErrorRate
attr title  "Symbol error rate, histogram"
bin	-INF	0
bin	-0.5	0
bin	-0.46666666666667	0
bin	-0.43333333333333	0
bin	-0.4	0
bin	-0.36666666666667	0
bin	-0.33333333333333	0
bin	-0.3	0
bin	-0.26666666666667	0
bin	-0.23333333333333	0
bin	-0.2	0
bin	-0.16666666666667	0
bin	-0.13333333333333	0
bin	-0.1	0
bin	-0.066666666666667	0
bin	-0.033333333333333	0
bin	0	0
bin	0.033333333333333	0
bin	0.066666666666667	0
bin	0.1	0
bin	0.13333333333333	0
bin	0.16666666666667	0
bin	0.2	0
bin	0.23333333333333	0
bin	0.26666666666667	0
bin	0.3	0
bin	0.33333333333333	0
bin	0.36666666666667	0
bin	0.4	0
bin	0.43333333333333	0
bin	0.46666666666667	0
bin	0.5	0
statistic scenarioPRJP1.node[60].wlan.radio 	bitErrorRate:histogram
field count 0
field mean -nan
field stddev -nan
field sum 0
field sqrsum 0
field min -nan
field max -nan
attr source  bitErrorRate
attr title  "Bit error rate, histogram"
bin	-INF	0
bin	-0.5	0
bin	-0.46666666666667	0
bin	-0.43333333333333	0
bin	-0.4	0
bin	-0.36666666666667	0
bin	-0.33333333333333	0
bin	-0.3	0
bin	-0.26666666666667	0
bin	-0.23333333333333	0
bin	-0.2	0
bin	-0.16666666666667	0
bin	-0.13333333333333	0
bin	-0.1	0
bin	-0.066666666666667	0
bin	-0.033333333333333	0
bin	0	0
bin	0.033333333333333	0
bin	0.066666666666667	0
bin	0.1	0
bin	0.13333333333333	0
bin	0.16666666666667	0
bin	0.2	0
bin	0.23333333333333	0
bin	0.26666666666667	0
bin	0.3	0
bin	0.33333333333333	0
bin	0.36666666666667	0
bin	0.4	0
bin	0.43333333333333	0
bin	0.46666666666667	0
bin	0.5	0
statistic scenarioPRJP1.node[60].wlan.radio 	packetErrorRate:histogram
field count 52883
field mean 0.24201748095455
field stddev 0.41669252340518
field sum 12798.610445319
field sqrsum 12279.5297362
field min 0
field max 1
attr source  packetErrorRate
attr title  "Packet error rate, histogram"
bin	-INF	0
bin	-0.5	0
bin	-0.43333333333333	0
bin	-0.36666666666667	0
bin	-0.3	0
bin	-0.23333333333333	0
bin	-0.16666666666667	0
bin	-0.1	0
bin	-0.033333333333333	37928
bin	0.033333333333333	864
bin	0.1	462
bin	0.16666666666667	288
bin	0.23333333333333	236
bin	0.3	175
bin	0.36666666666667	170
bin	0.43333333333333	152
bin	0.5	129
bin	0.56666666666667	129
bin	0.63333333333333	125
bin	0.7	135
bin	0.76666666666667	162
bin	0.83333333333333	172
bin	0.9	248
bin	0.96666666666667	11508
bin	1.0333333333333	0
bin	1.1	0
bin	1.1666666666667	0
bin	1.2333333333333	0
bin	1.3	0
bin	1.3666666666667	0
bin	1.4333333333333	0
bin	1.5	0
statistic scenarioPRJP1.node[60].wlan.radio 	minSNIR:histogram
field count 52883
field mean 206.51853637888
field stddev 3080.7400594184
field sum 10921319.759325
field sqrsum 504156365399.39
field min 0.00038480996479029
field max 439032.90006325
attr source  minSNIR
attr title  "Min SNIR, histogram"
bin	-INF	0
bin	-12184.842032812	0
bin	-10560.154896078	0
bin	-8935.4677593429	0
bin	-7310.7806226081	0
bin	-5686.0934858734	0
bin	-4061.4063491387	0
bin	-2436.7192124039	0
bin	-812.03207566921	51242
bin	812.65506106552	1003
bin	2437.3421978003	238
bin	4062.029334535	109
bin	5686.7164712697	60
bin	7311.4036080045	46
bin	8936.0907447392	28
bin	10560.777881474	24
bin	12185.465018209	16
bin	13810.152154943	11
bin	15434.839291678	5
bin	17059.526428413	10
bin	18684.213565148	9
bin	20308.900701882	8
bin	21933.587838617	7
bin	23558.274975352	3
bin	25182.962112087	5
bin	26807.649248821	19
bin	28432.336385556	5
bin	30057.023522291	4
bin	31681.710659025	13
bin	33306.39779576	0
bin	34931.084932495	2
bin	36555.77206923	16
scalar scenarioPRJP1.node[60].lo0.lo 	droppedPkBitError:count 	0
attr interpolationmode  none
attr source  dropPkBitError
attr title  "packets dropped/bit error, count"
scalar scenarioPRJP1.node[60].lo0.lo 	droppedPkBitError:sum(packetBytes) 	0
attr interpolationmode  none
attr source  dropPkBitError
attr title  "packets dropped/bit error, sum(packetBytes)"
scalar scenarioPRJP1.node[60].lo0.lo 	rcvdPkFromHL:count 	14
attr interpolationmode  none
attr source  packetReceivedFromUpper
attr title  "packets received from higher layer, count"
scalar scenarioPRJP1.node[60].lo0.lo 	rcvdPkFromHL:sum(packetBytes) 	7280
attr interpolationmode  none
attr source  packetReceivedFromUpper
attr title  "packets received from higher layer, sum(packetBytes)"
scalar scenarioPRJP1.node[60].lo0.lo 	passedUpPk:count 	14
attr interpolationmode  none
attr source  packetSentToUpper
attr title  "packets passed to higher layer, count"
scalar scenarioPRJP1.node[60].lo0.lo 	passedUpPk:sum(packetBytes) 	7280
attr interpolationmode  none
attr source  packetSentToUpper
attr title  "packets passed to higher layer, sum(packetBytes)"
scalar scenarioPRJP1.node[91].app 	"Total sent" 	373
scalar scenarioPRJP1.node[91].app 	"Total received" 	16
scalar scenarioPRJP1.node[91].app 	"Total deleted" 	0
scalar scenarioPRJP1.node[91].app 	dropPk:count 	0
attr interpolationmode  none
attr source  dropPk
attr title  "packets dropped, count"
scalar scenarioPRJP1.node[91].app 	dropPk:sum(packetBytes) 	0
attr interpolationmode  none
attr source  dropPk
attr title  "packets dropped, sum(packetBytes)"
scalar scenarioPRJP1.node[91].app 	outOfOrderPk:count 	7
attr interpolationmode  none
attr source  outOfOrderPk
attr title  "packets received out of order, count"
scalar scenarioPRJP1.node[91].app 	outOfOrderPk:sum(packetBytes) 	3584
attr interpolationmode  none
attr source  outOfOrderPk
attr title  "packets received out of order, sum(packetBytes)"
scalar scenarioPRJP1.node[91].app 	rcvdPk:count 	16
attr interpolationmode  none
attr source  rcvdPk
attr title  "packets received, count"
scalar scenarioPRJP1.node[91].app 	rcvdPk:sum(packetBytes) 	8192
attr interpolationmode  none
attr source  rcvdPk
attr title  "packets received, sum(packetBytes)"
statistic scenarioPRJP1.node[91].app 	endToEndDelay:histogram
field count 16
field mean 1.7432498529139
field stddev 3.3878391281092
field sum 27.891997646622
field sqrsum 220.78453016417
field min 0.003125095859
field max 12.057819236606
attr interpolationmode  none
attr source  messageAge(rcvdPk)
attr title  "delay, histogram"
attr unit  s
bin	-INF	0
bin	-6.0242219745145	0
bin	-5.2205756984647	0
bin	-4.4169294224149	0
bin	-3.6132831463651	0
bin	-2.8096368703153	0
bin	-2.0059905942655	0
bin	-1.2023443182157	0
bin	-0.3986980421659	9
bin	0.4049482338839	3
bin	1.2085945099337	1
bin	2.0122407859835	0
bin	2.8158870620333	0
bin	3.6195333380831	0
bin	4.4231796141329	1
bin	5.2268258901827	0
bin	6.0304721662325	0
bin	6.8341184422823	1
bin	7.6377647183321	0
bin	8.4414109943819	0
bin	9.2450572704317	0
bin	10.048703546482	0
bin	10.852349822531	0
bin	11.655996098581	1
bin	12.459642374631	0
bin	13.263288650681	0
bin	14.066934926731	0
bin	14.87058120278	0
bin	15.67422747883	0
bin	16.47787375488	0
bin	17.28152003093	0
bin	18.085166306979	0
scalar scenarioPRJP1.node[91].app 	sentPk:count 	373
attr interpolationmode  none
attr source  sentPk
attr title  "packets sent, count"
scalar scenarioPRJP1.node[91].app 	sentPk:sum(packetBytes) 	190976
attr interpolationmode  none
attr source  sentPk
attr title  "packets sent, sum(packetBytes)"
scalar scenarioPRJP1.node[91].udp 	droppedPkBadChecksum:count 	0
attr interpolationmode  none
attr title  "packets dropped (checksum error), count"
scalar scenarioPRJP1.node[91].udp 	droppedPkWrongPort:count 	0
attr interpolationmode  none
attr title  "packets dropped (wrong port), count"
scalar scenarioPRJP1.node[91].udp 	passedUpPk:count 	23
attr interpolationmode  none
attr title  "packets passed up, count"
scalar scenarioPRJP1.node[91].udp 	rcvdPk:count 	23
attr interpolationmode  none
attr source  rcvdPk
attr title  "packets received, count"
scalar scenarioPRJP1.node[91].udp 	rcvdPk:sum(packetBytes) 	11960
attr interpolationmode  none
attr source  rcvdPk
attr title  "packets received, sum(packetBytes)"
scalar scenarioPRJP1.node[91].udp 	sentPk:count 	373
attr interpolationmode  none
attr source  sentPk
attr title  "packets sent, count"
scalar scenarioPRJP1.node[91].udp 	sentPk:sum(packetBytes) 	193960
attr interpolationmode  none
attr source  sentPk
attr title  "packets sent, sum(packetBytes)"
scalar scenarioPRJP1.node[91].networkLayer.arp 	failedARPResolution:count 	6
attr title  "ARP failed resolutions, count"
scalar scenarioPRJP1.node[91].networkLayer.arp 	completedARPResolution:count 	106
attr title  "ARP completed resolutions, count"
scalar scenarioPRJP1.node[91].networkLayer.arp 	initiatedARPResolution:count 	17
attr title  "ARP initiated resolutions, count"
scalar scenarioPRJP1.node[91].networkLayer.arp 	sentReply:count 	12
attr title  "ARP replies sent, count"
scalar scenarioPRJP1.node[91].networkLayer.arp 	sentReq:count 	35
attr title  "ARP request sent, count"
scalar scenarioPRJP1.node[91].mobility 	startTime 	9.7
scalar scenarioPRJP1.node[91].mobility 	totalTime 	150.3
scalar scenarioPRJP1.node[91].mobility 	stopTime 	160.1
scalar scenarioPRJP1.node[91].mobility 	minSpeed 	2.4763845580076e-13
scalar scenarioPRJP1.node[91].mobility 	maxSpeed 	18.153825426065
scalar scenarioPRJP1.node[91].mobility 	totalDistance 	1484.9378405989
scalar scenarioPRJP1.node[91].mobility 	totalCO2Emission 	450.8579681431
scalar scenarioPRJP1.node[91].wlan.mgmt 	dataQueueLen:max 	3
attr interpolationmode  sample-hold
attr title  "data queue length, max"
scalar scenarioPRJP1.node[91].wlan.mgmt 	dataQueueLen:timeavg 	0
attr interpolationmode  sample-hold
attr title  "data queue length, timeavg"
scalar scenarioPRJP1.node[91].wlan.mgmt 	dropPkByQueue:count 	0
attr interpolationmode  none
attr source  dropPkByQueue
attr title  "packets dropped by queue, count"
scalar scenarioPRJP1.node[91].wlan.mgmt 	dropPkByQueue:sum(packetBytes) 	0
attr interpolationmode  none
attr source  dropPkByQueue
attr title  "packets dropped by queue, sum(packetBytes)"
scalar scenarioPRJP1.node[91].wlan.mac 	"number of received packets" 	1226
scalar scenarioPRJP1.node[91].wlan.mac 	"number of collisions" 	17382
scalar scenarioPRJP1.node[91].wlan.mac 	"number of internal collisions" 	0
scalar scenarioPRJP1.node[91].wlan.mac 	"number of retry for AC 0" 	3557
scalar scenarioPRJP1.node[91].wlan.mac 	"number of retry for AC 1" 	0
scalar scenarioPRJP1.node[91].wlan.mac 	"number of retry for AC 2" 	0
scalar scenarioPRJP1.node[91].wlan.mac 	"number of retry for AC 3" 	0
scalar scenarioPRJP1.node[91].wlan.mac 	"sent and received bits" 	4224224
scalar scenarioPRJP1.node[91].wlan.mac 	"sent packet within AC 0" 	731
scalar scenarioPRJP1.node[91].wlan.mac 	"sent packet within AC 1" 	0
scalar scenarioPRJP1.node[91].wlan.mac 	"sent packet within AC 2" 	0
scalar scenarioPRJP1.node[91].wlan.mac 	"sent packet within AC 3" 	0
scalar scenarioPRJP1.node[91].wlan.mac 	"sent in TXOP " 	0
scalar scenarioPRJP1.node[91].wlan.mac 	"sentWithoutRetry AC 0" 	633
scalar scenarioPRJP1.node[91].wlan.mac 	"sentWithoutRetry AC 1" 	0
scalar scenarioPRJP1.node[91].wlan.mac 	"sentWithoutRetry AC 2" 	0
scalar scenarioPRJP1.node[91].wlan.mac 	"sentWithoutRetry AC 3" 	0
scalar scenarioPRJP1.node[91].wlan.mac 	"numGivenUp AC 0" 	556
scalar scenarioPRJP1.node[91].wlan.mac 	"numGivenUp AC 1" 	0
scalar scenarioPRJP1.node[91].wlan.mac 	"numGivenUp AC 2" 	0
scalar scenarioPRJP1.node[91].wlan.mac 	"numGivenUp AC 3" 	0
scalar scenarioPRJP1.node[91].wlan.mac 	"numDropped AC 0" 	0
scalar scenarioPRJP1.node[91].wlan.mac 	"numDropped AC 1" 	0
scalar scenarioPRJP1.node[91].wlan.mac 	"numDropped AC 2" 	0
scalar scenarioPRJP1.node[91].wlan.mac 	"numDropped AC 3" 	0
scalar scenarioPRJP1.node[91].wlan.mac 	rcvdPkFromLL:count 	63901
attr interpolationmode  none
attr source  packetReceivedFromLower
attr title  "packets received from lower layer, count"
scalar scenarioPRJP1.node[91].wlan.mac 	rcvdPkFromLL:sum(packetBytes) 	12032724
attr interpolationmode  none
attr source  packetReceivedFromLower
attr title  "packets received from lower layer, sum(packetBytes)"
scalar scenarioPRJP1.node[91].wlan.mac 	sentDownPk:count 	10748
attr interpolationmode  none
attr source  packetSentToLower
attr title  "packets sent to lower layer, count"
scalar scenarioPRJP1.node[91].wlan.mac 	sentDownPk:sum(packetBytes) 	1932800
attr interpolationmode  none
attr source  packetSentToLower
attr title  "packets sent to lower layer, sum(packetBytes)"
scalar scenarioPRJP1.node[91].wlan.mac 	rcvdPkFromHL:count 	5965
attr interpolationmode  none
attr source  packetReceivedFromUpper
attr title  "packets received from higher layer, count"
scalar scenarioPRJP1.node[91].wlan.mac 	rcvdPkFromHL:sum(packetBytes) 	714812
attr interpolationmode  none
attr source  packetReceivedFromUpper
attr title  "packets received from higher layer, sum(packetBytes)"
scalar scenarioPRJP1.node[91].wlan.mac 	passedUpPk:count 	17675
attr interpolationmode  none
attr source  packetSentToUpper
attr title  "packets passed to higher layer, count"
scalar scenarioPRJP1.node[91].wlan.mac 	passedUpPk:sum(packetBytes) 	1452072
attr interpolationmode  none
attr source  packetSentToUpper
attr title  "packets passed to higher layer, sum(packetBytes)"
statistic scenarioPRJP1.node[91].wlan.radio 	radioChannel:histogram
field count 1
field mean 3
field stddev -nan
field sum 3
field sqrsum 9
field min 3
field max 3
attr interpolationmode  sample-hold
attr source  radioChannelChanged
attr title  "Radio channel, histogram"
bin	-INF	0
bin	2	0
bin	3	1
bin	4	0
scalar scenarioPRJP1.node[91].wlan.radio 	transmissionState:count 	42992
attr interpolationmode  sample-hold
attr source  transmissionStateChanged
attr title  "Radio transmission state, count"
scalar scenarioPRJP1.node[91].wlan.radio 	receptionState:count 	152766
attr interpolationmode  sample-hold
attr source  receptionStateChanged
attr title  "Radio reception state, count"
scalar scenarioPRJP1.node[91].wlan.radio 	radioMode:count 	21498
attr interpolationmode  sample-hold
attr source  radioModeChanged
attr title  "Radio mode, count"
statistic scenarioPRJP1.node[91].wlan.radio 	symbolErrorRate:histogram
field count 0
field mean -nan
field stddev -nan
field sum 0
field sqrsum 0
field min -nan
field max -nan
attr source  symbolErrorRate
attr title  "Symbol error rate, histogram"
bin	-INF	0
bin	-0.5	0
bin	-0.46666666666667	0
bin	-0.43333333333333	0
bin	-0.4	0
bin	-0.36666666666667	0
bin	-0.33333333333333	0
bin	-0.3	0
bin	-0.26666666666667	0
bin	-0.23333333333333	0
bin	-0.2	0
bin	-0.16666666666667	0
bin	-0.13333333333333	0
bin	-0.1	0
bin	-0.066666666666667	0
bin	-0.033333333333333	0
bin	0	0
bin	0.033333333333333	0
bin	0.066666666666667	0
bin	0.1	0
bin	0.13333333333333	0
bin	0.16666666666667	0
bin	0.2	0
bin	0.23333333333333	0
bin	0.26666666666667	0
bin	0.3	0
bin	0.33333333333333	0
bin	0.36666666666667	0
bin	0.4	0
bin	0.43333333333333	0
bin	0.46666666666667	0
bin	0.5	0
statistic scenarioPRJP1.node[91].wlan.radio 	bitErrorRate:histogram
field count 0
field mean -nan
field stddev -nan
field sum 0
field sqrsum 0
field min -nan
field max -nan
attr source  bitErrorRate
attr title  "Bit error rate, histogram"
bin	-INF	0
bin	-0.5	0
bin	-0.46666666666667	0
bin	-0.43333333333333	0
bin	-0.4	0
bin	-0.36666666666667	0
bin	-0.33333333333333	0
bin	-0.3	0
bin	-0.26666666666667	0
bin	-0.23333333333333	0
bin	-0.2	0
bin	-0.16666666666667	0
bin	-0.13333333333333	0
bin	-0.1	0
bin	-0.066666666666667	0
bin	-0.033333333333333	0
bin	0	0
bin	0.033333333333333	0
bin	0.066666666666667	0
bin	0.1	0
bin	0.13333333333333	0
bin	0.16666666666667	0
bin	0.2	0
bin	0.23333333333333	0
bin	0.26666666666667	0
bin	0.3	0
bin	0.33333333333333	0
bin	0.36666666666667	0
bin	0.4	0
bin	0.43333333333333	0
bin	0.46666666666667	0
bin	0.5	0
statistic scenarioPRJP1.node[91].wlan.radio 	packetErrorRate:histogram
field count 63901
field mean 0.240677517557
field stddev 0.41594902375859
field sum 15379.53404941
field sqrsum 14757.076500565
field min 0
field max 1
attr source  packetErrorRate
attr title  "Packet error rate, histogram"
bin	-INF	0
bin	-0.5	0
bin	-0.43333333333333	0
bin	-0.36666666666667	0
bin	-0.3	0
bin	-0.23333333333333	0
bin	-0.16666666666667	0
bin	-0.1	0
bin	-0.033333333333333	45970
bin	0.033333333333333	1019
bin	0.1	520
bin	0.16666666666667	346
bin	0.23333333333333	244
bin	0.3	245
bin	0.36666666666667	201
bin	0.43333333333333	182
bin	0.5	177
bin	0.56666666666667	157
bin	0.63333333333333	168
bin	0.7	159
bin	0.76666666666667	186
bin	0.83333333333333	200
bin	0.9	332
bin	0.96666666666667	13795
bin	1.0333333333333	0
bin	1.1	0
bin	1.1666666666667	0
bin	1.2333333333333	0
bin	1.3	0
bin	1.3666666666667	0
bin	1.4333333333333	0
bin	1.5	0
statistic scenarioPRJP1.node[91].wlan.radio 	minSNIR:histogram
field count 63901
field mean 618.85065307774
field stddev 7141.1992105883
field sum 39545175.582321
field sqrsum 3283163359698.3
field min 0.0004047642821002
field max 753238.17624201
attr source  minSNIR
attr title  "Min SNIR, histogram"
bin	-INF	0
bin	-1644.6415629356	0
bin	-1425.200383287	0
bin	-1205.7592036383	0
bin	-986.31802398964	0
bin	-766.87684434098	0
bin	-547.43566469232	0
bin	-327.99448504366	0
bin	-108.553305395	49772
bin	110.88787425366	2901
bin	330.32905390232	1218
bin	549.77023355098	1570
bin	769.21141319965	1336
bin	988.65259284831	1074
bin	1208.093772497	830
bin	1427.5349521456	704
bin	1646.9761317943	528
bin	1866.4173114429	430
bin	2085.8584910916	364
bin	2305.2996707403	305
bin	2524.7408503889	246
bin	2744.1820300376	191
bin	2963.6232096863	181
bin	3183.0643893349	144
bin	3402.5055689836	139
bin	3621.9467486322	137
bin	3841.3879282809	118
bin	4060.8291079296	99
bin	4280.2702875782	89
bin	4499.7114672269	77
bin	4719.1526468755	67
bin	4938.5938265242	1381
scalar scenarioPRJP1.node[91].lo0.lo 	droppedPkBitError:count 	0
attr interpolationmode  none
attr source  dropPkBitError
attr title  "packets dropped/bit error, count"
scalar scenarioPRJP1.node[91].lo0.lo 	droppedPkBitError:sum(packetBytes) 	0
attr interpolationmode  none
attr source  dropPkBitError
attr title  "packets dropped/bit error, sum(packetBytes)"
scalar scenarioPRJP1.node[91].lo0.lo 	rcvdPkFromHL:count 	23
attr interpolationmode  none
attr source  packetReceivedFromUpper
attr title  "packets received from higher layer, count"
scalar scenarioPRJP1.node[91].lo0.lo 	rcvdPkFromHL:sum(packetBytes) 	11960
attr interpolationmode  none
attr source  packetReceivedFromUpper
attr title  "packets received from higher layer, sum(packetBytes)"
scalar scenarioPRJP1.node[91].lo0.lo 	passedUpPk:count 	23
attr interpolationmode  none
attr source  packetSentToUpper
attr title  "packets passed to higher layer, count"
scalar scenarioPRJP1.node[91].lo0.lo 	passedUpPk:sum(packetBytes) 	11960
attr interpolationmode  none
attr source  packetSentToUpper
attr title  "packets passed to higher layer, sum(packetBytes)"
scalar scenarioPRJP1.node[50].app 	"Total sent" 	375
scalar scenarioPRJP1.node[50].app 	"Total received" 	18
scalar scenarioPRJP1.node[50].app 	"Total deleted" 	1
scalar scenarioPRJP1.node[50].app 	dropPk:count 	1
attr interpolationmode  none
attr source  dropPk
attr title  "packets dropped, count"
scalar scenarioPRJP1.node[50].app 	dropPk:sum(packetBytes) 	512
attr interpolationmode  none
attr source  dropPk
attr title  "packets dropped, sum(packetBytes)"
scalar scenarioPRJP1.node[50].app 	outOfOrderPk:count 	7
attr interpolationmode  none
attr source  outOfOrderPk
attr title  "packets received out of order, count"
scalar scenarioPRJP1.node[50].app 	outOfOrderPk:sum(packetBytes) 	3584
attr interpolationmode  none
attr source  outOfOrderPk
attr title  "packets received out of order, sum(packetBytes)"
scalar scenarioPRJP1.node[50].app 	rcvdPk:count 	18
attr interpolationmode  none
attr source  rcvdPk
attr title  "packets received, count"
scalar scenarioPRJP1.node[50].app 	rcvdPk:sum(packetBytes) 	9216
attr interpolationmode  none
attr source  rcvdPk
attr title  "packets received, sum(packetBytes)"
statistic scenarioPRJP1.node[50].app 	endToEndDelay:histogram
field count 18
field mean 1.1364596514854
field stddev 2.0821882673986
field sum 20.456273726738
field sqrsum 96.951365385347
field min 0.022660786656
field max 9.124843384878
attr interpolationmode  none
attr source  messageAge(rcvdPk)
attr title  "delay, histogram"
attr unit  s
bin	-INF	0
bin	-4.528430512455	0
bin	-3.9216183392402	0
bin	-3.3148061660254	0
bin	-2.7079939928106	0
bin	-2.1011818195958	0
bin	-1.494369646381	0
bin	-0.8875574731662	0
bin	-0.2807452999514	8
bin	0.3260668732634	3
bin	0.9328790464782	4
bin	1.539691219693	2
bin	2.1465033929078	0
bin	2.7533155661226	0
bin	3.3601277393374	0
bin	3.9669399125522	0
bin	4.573752085767	0
bin	5.1805642589818	0
bin	5.7873764321966	0
bin	6.3941886054114	0
bin	7.0010007786262	0
bin	7.607812951841	0
bin	8.2146251250558	0
bin	8.8214372982706	1
bin	9.4282494714854	0
bin	10.0350616447	0
bin	10.641873817915	0
bin	11.24868599113	0
bin	11.855498164345	0
bin	12.462310337559	0
bin	13.069122510774	0
bin	13.675934683989	0
scalar scenarioPRJP1.node[50].app 	sentPk:count 	375
attr interpolationmode  none
attr source  sentPk
attr title  "packets sent, count"
scalar scenarioPRJP1.node[50].app 	sentPk:sum(packetBytes) 	192000
attr interpolationmode  none
attr source  sentPk
attr title  "packets sent, sum(packetBytes)"
scalar scenarioPRJP1.node[50].udp 	droppedPkBadChecksum:count 	0
attr interpolationmode  none
attr title  "packets dropped (checksum error), count"
scalar scenarioPRJP1.node[50].udp 	droppedPkWrongPort:count 	0
attr interpolationmode  none
attr title  "packets dropped (wrong port), count"
scalar scenarioPRJP1.node[50].udp 	passedUpPk:count 	26
attr interpolationmode  none
attr title  "packets passed up, count"
scalar scenarioPRJP1.node[50].udp 	rcvdPk:count 	26
attr interpolationmode  none
attr source  rcvdPk
attr title  "packets received, count"
scalar scenarioPRJP1.node[50].udp 	rcvdPk:sum(packetBytes) 	13520
attr interpolationmode  none
attr source  rcvdPk
attr title  "packets received, sum(packetBytes)"
scalar scenarioPRJP1.node[50].udp 	sentPk:count 	375
attr interpolationmode  none
attr source  sentPk
attr title  "packets sent, count"
scalar scenarioPRJP1.node[50].udp 	sentPk:sum(packetBytes) 	195000
attr interpolationmode  none
attr source  sentPk
attr title  "packets sent, sum(packetBytes)"
scalar scenarioPRJP1.node[50].networkLayer.arp 	failedARPResolution:count 	6
attr title  "ARP failed resolutions, count"
scalar scenarioPRJP1.node[50].networkLayer.arp 	completedARPResolution:count 	151
attr title  "ARP completed resolutions, count"
scalar scenarioPRJP1.node[50].networkLayer.arp 	initiatedARPResolution:count 	25
attr title  "ARP initiated resolutions, count"
scalar scenarioPRJP1.node[50].networkLayer.arp 	sentReply:count 	9
attr title  "ARP replies sent, count"
scalar scenarioPRJP1.node[50].networkLayer.arp 	sentReq:count 	44
attr title  "ARP request sent, count"
scalar scenarioPRJP1.node[50].mobility 	startTime 	4.9
scalar scenarioPRJP1.node[50].mobility 	totalTime 	156.6
scalar scenarioPRJP1.node[50].mobility 	stopTime 	161.6
scalar scenarioPRJP1.node[50].mobility 	minSpeed 	2.47588763494e-13
scalar scenarioPRJP1.node[50].mobility 	maxSpeed 	16.614459031354
scalar scenarioPRJP1.node[50].mobility 	totalDistance 	1484.7746805383
scalar scenarioPRJP1.node[50].mobility 	totalCO2Emission 	413.16189805698
scalar scenarioPRJP1.node[50].wlan.mgmt 	dataQueueLen:max 	53
attr interpolationmode  sample-hold
attr title  "data queue length, max"
scalar scenarioPRJP1.node[50].wlan.mgmt 	dataQueueLen:timeavg 	0.49593434453637
attr interpolationmode  sample-hold
attr title  "data queue length, timeavg"
scalar scenarioPRJP1.node[50].wlan.mgmt 	dropPkByQueue:count 	0
attr interpolationmode  none
attr source  dropPkByQueue
attr title  "packets dropped by queue, count"
scalar scenarioPRJP1.node[50].wlan.mgmt 	dropPkByQueue:sum(packetBytes) 	0
attr interpolationmode  none
attr source  dropPkByQueue
attr title  "packets dropped by queue, sum(packetBytes)"
scalar scenarioPRJP1.node[50].wlan.mac 	"number of received packets" 	2449
scalar scenarioPRJP1.node[50].wlan.mac 	"number of collisions" 	24457
scalar scenarioPRJP1.node[50].wlan.mac 	"number of internal collisions" 	0
scalar scenarioPRJP1.node[50].wlan.mac 	"number of retry for AC 0" 	5238
scalar scenarioPRJP1.node[50].wlan.mac 	"number of retry for AC 1" 	0
scalar scenarioPRJP1.node[50].wlan.mac 	"number of retry for AC 2" 	0
scalar scenarioPRJP1.node[50].wlan.mac 	"number of retry for AC 3" 	0
scalar scenarioPRJP1.node[50].wlan.mac 	"sent and received bits" 	4938848
scalar scenarioPRJP1.node[50].wlan.mac 	"sent packet within AC 0" 	920
scalar scenarioPRJP1.node[50].wlan.mac 	"sent packet within AC 1" 	0
scalar scenarioPRJP1.node[50].wlan.mac 	"sent packet within AC 2" 	0
scalar scenarioPRJP1.node[50].wlan.mac 	"sent packet within AC 3" 	0
scalar scenarioPRJP1.node[50].wlan.mac 	"sent in TXOP " 	0
scalar scenarioPRJP1.node[50].wlan.mac 	"sentWithoutRetry AC 0" 	791
scalar scenarioPRJP1.node[50].wlan.mac 	"sentWithoutRetry AC 1" 	0
scalar scenarioPRJP1.node[50].wlan.mac 	"sentWithoutRetry AC 2" 	0
scalar scenarioPRJP1.node[50].wlan.mac 	"sentWithoutRetry AC 3" 	0
scalar scenarioPRJP1.node[50].wlan.mac 	"numGivenUp AC 0" 	822
scalar scenarioPRJP1.node[50].wlan.mac 	"numGivenUp AC 1" 	0
scalar scenarioPRJP1.node[50].wlan.mac 	"numGivenUp AC 2" 	0
scalar scenarioPRJP1.node[50].wlan.mac 	"numGivenUp AC 3" 	0
scalar scenarioPRJP1.node[50].wlan.mac 	"numDropped AC 0" 	266
scalar scenarioPRJP1.node[50].wlan.mac 	"numDropped AC 1" 	0
scalar scenarioPRJP1.node[50].wlan.mac 	"numDropped AC 2" 	0
scalar scenarioPRJP1.node[50].wlan.mac 	"numDropped AC 3" 	0
scalar scenarioPRJP1.node[50].wlan.mac 	rcvdPkFromLL:count 	85549
attr interpolationmode  none
attr source  packetReceivedFromLower
attr title  "packets received from lower layer, count"
scalar scenarioPRJP1.node[50].wlan.mac 	rcvdPkFromLL:sum(packetBytes) 	16038748
attr interpolationmode  none
attr source  packetReceivedFromLower
attr title  "packets received from lower layer, sum(packetBytes)"
scalar scenarioPRJP1.node[50].wlan.mac 	sentDownPk:count 	14238
attr interpolationmode  none
attr source  packetSentToLower
attr title  "packets sent to lower layer, count"
scalar scenarioPRJP1.node[50].wlan.mac 	sentDownPk:sum(packetBytes) 	2472202
attr interpolationmode  none
attr source  packetSentToLower
attr title  "packets sent to lower layer, sum(packetBytes)"
scalar scenarioPRJP1.node[50].wlan.mac 	rcvdPkFromHL:count 	6817
attr interpolationmode  none
attr source  packetReceivedFromUpper
attr title  "packets received from higher layer, count"
scalar scenarioPRJP1.node[50].wlan.mac 	rcvdPkFromHL:sum(packetBytes) 	899720
attr interpolationmode  none
attr source  packetReceivedFromUpper
attr title  "packets received from higher layer, sum(packetBytes)"
scalar scenarioPRJP1.node[50].wlan.mac 	passedUpPk:count 	21264
attr interpolationmode  none
attr source  packetSentToUpper
attr title  "packets passed to higher layer, count"
scalar scenarioPRJP1.node[50].wlan.mac 	passedUpPk:sum(packetBytes) 	1786780
attr interpolationmode  none
attr source  packetSentToUpper
attr title  "packets passed to higher layer, sum(packetBytes)"
statistic scenarioPRJP1.node[50].wlan.radio 	radioChannel:histogram
field count 1
field mean 3
field stddev -nan
field sum 3
field sqrsum 9
field min 3
field max 3
attr interpolationmode  sample-hold
attr source  radioChannelChanged
attr title  "Radio channel, histogram"
bin	-INF	0
bin	2	0
bin	3	1
bin	4	0
scalar scenarioPRJP1.node[50].wlan.radio 	transmissionState:count 	56952
attr interpolationmode  sample-hold
attr source  transmissionStateChanged
attr title  "Radio transmission state, count"
scalar scenarioPRJP1.node[50].wlan.radio 	receptionState:count 	203217
attr interpolationmode  sample-hold
attr source  receptionStateChanged
attr title  "Radio reception state, count"
scalar scenarioPRJP1.node[50].wlan.radio 	radioMode:count 	28478
attr interpolationmode  sample-hold
attr source  radioModeChanged
attr title  "Radio mode, count"
statistic scenarioPRJP1.node[50].wlan.radio 	symbolErrorRate:histogram
field count 0
field mean -nan
field stddev -nan
field sum 0
field sqrsum 0
field min -nan
field max -nan
attr source  symbolErrorRate
attr title  "Symbol error rate, histogram"
bin	-INF	0
bin	-0.5	0
bin	-0.46666666666667	0
bin	-0.43333333333333	0
bin	-0.4	0
bin	-0.36666666666667	0
bin	-0.33333333333333	0
bin	-0.3	0
bin	-0.26666666666667	0
bin	-0.23333333333333	0
bin	-0.2	0
bin	-0.16666666666667	0
bin	-0.13333333333333	0
bin	-0.1	0
bin	-0.066666666666667	0
bin	-0.033333333333333	0
bin	0	0
bin	0.033333333333333	0
bin	0.066666666666667	0
bin	0.1	0
bin	0.13333333333333	0
bin	0.16666666666667	0
bin	0.2	0
bin	0.23333333333333	0
bin	0.26666666666667	0
bin	0.3	0
bin	0.33333333333333	0
bin	0.36666666666667	0
bin	0.4	0
bin	0.43333333333333	0
bin	0.46666666666667	0
bin	0.5	0
statistic scenarioPRJP1.node[50].wlan.radio 	bitErrorRate:histogram
field count 0
field mean -nan
field stddev -nan
field sum 0
field sqrsum 0
field min -nan
field max -nan
attr source  bitErrorRate
attr title  "Bit error rate, histogram"
bin	-INF	0
bin	-0.5	0
bin	-0.46666666666667	0
bin	-0.43333333333333	0
bin	-0.4	0
bin	-0.36666666666667	0
bin	-0.33333333333333	0
bin	-0.3	0
bin	-0.26666666666667	0
bin	-0.23333333333333	0
bin	-0.2	0
bin	-0.16666666666667	0
bin	-0.13333333333333	0
bin	-0.1	0
bin	-0.066666666666667	0
bin	-0.033333333333333	0
bin	0	0
bin	0.033333333333333	0
bin	0.066666666666667	0
bin	0.1	0
bin	0.13333333333333	0
bin	0.16666666666667	0
bin	0.2	0
bin	0.23333333333333	0
bin	0.26666666666667	0
bin	0.3	0
bin	0.33333333333333	0
bin	0.36666666666667	0
bin	0.4	0
bin	0.43333333333333	0
bin	0.46666666666667	0
bin	0.5	0
statistic scenarioPRJP1.node[50].wlan.radio 	packetErrorRate:histogram
field count 85549
field mean 0.25325691615401
field stddev 0.42331157992953
field sum 21665.87592006
field sqrsum 20816.609482146
field min 0
field max 1
attr source  packetErrorRate
attr title  "Packet error rate, histogram"
bin	-INF	0
bin	-0.5	0
bin	-0.43333333333333	0
bin	-0.36666666666667	0
bin	-0.3	0
bin	-0.23333333333333	0
bin	-0.16666666666667	0
bin	-0.1	0
bin	-0.033333333333333	60397
bin	0.033333333333333	1397
bin	0.1	706
bin	0.16666666666667	466
bin	0.23333333333333	371
bin	0.3	327
bin	0.36666666666667	272
bin	0.43333333333333	248
bin	0.5	232
bin	0.56666666666667	244
bin	0.63333333333333	168
bin	0.7	215
bin	0.76666666666667	237
bin	0.83333333333333	300
bin	0.9	428
bin	0.96666666666667	19541
bin	1.0333333333333	0
bin	1.1	0
bin	1.1666666666667	0
bin	1.2333333333333	0
bin	1.3	0
bin	1.3666666666667	0
bin	1.4333333333333	0
bin	1.5	0
statistic scenarioPRJP1.node[50].wlan.radio 	minSNIR:histogram
field count 85549
field mean 304.41466569629
field stddev 2240.0363787389
field sum 26042370.235652
field sqrsum 437187266677.47
field min 0.00017160781871731
field max 160926.13478816
attr source  minSNIR
attr title  "Min SNIR, histogram"
bin	-INF	0
bin	-220.2650960327	0
bin	-190.71647296686	0
bin	-161.16784990101	0
bin	-131.61922683516	0
bin	-102.07060376932	0
bin	-72.521980703472	0
bin	-42.973357637625	0
bin	-13.424734571779	54199
bin	16.123888494068	10660
bin	45.672511559914	2872
bin	75.22113462576	1985
bin	104.76975769161	1730
bin	134.31838075745	1401
bin	163.8670038233	1062
bin	193.41562688915	1013
bin	222.96424995499	804
bin	252.51287302084	756
bin	282.06149608668	663
bin	311.61011915253	503
bin	341.15874221838	442
bin	370.70736528422	372
bin	400.25598835007	333
bin	429.80461141592	290
bin	459.35323448176	240
bin	488.90185754761	261
bin	518.45048061346	214
bin	547.9991036793	194
bin	577.54772674515	210
bin	607.096349811	179
bin	636.64497287684	176
bin	666.19359594269	4990
scalar scenarioPRJP1.node[50].lo0.lo 	droppedPkBitError:count 	0
attr interpolationmode  none
attr source  dropPkBitError
attr title  "packets dropped/bit error, count"
scalar scenarioPRJP1.node[50].lo0.lo 	droppedPkBitError:sum(packetBytes) 	0
attr interpolationmode  none
attr source  dropPkBitError
attr title  "packets dropped/bit error, sum(packetBytes)"
scalar scenarioPRJP1.node[50].lo0.lo 	rcvdPkFromHL:count 	26
attr interpolationmode  none
attr source  packetReceivedFromUpper
attr title  "packets received from higher layer, count"
scalar scenarioPRJP1.node[50].lo0.lo 	rcvdPkFromHL:sum(packetBytes) 	13520
attr interpolationmode  none
attr source  packetReceivedFromUpper
attr title  "packets received from higher layer, sum(packetBytes)"
scalar scenarioPRJP1.node[50].lo0.lo 	passedUpPk:count 	26
attr interpolationmode  none
attr source  packetSentToUpper
attr title  "packets passed to higher layer, count"
scalar scenarioPRJP1.node[50].lo0.lo 	passedUpPk:sum(packetBytes) 	13520
attr interpolationmode  none
attr source  packetSentToUpper
attr title  "packets passed to higher layer, sum(packetBytes)"
scalar scenarioPRJP1.node[57].app 	"Total sent" 	381
scalar scenarioPRJP1.node[57].app 	"Total received" 	21
scalar scenarioPRJP1.node[57].app 	"Total deleted" 	1
scalar scenarioPRJP1.node[57].app 	dropPk:count 	1
attr interpolationmode  none
attr source  dropPk
attr title  "packets dropped, count"
scalar scenarioPRJP1.node[57].app 	dropPk:sum(packetBytes) 	512
attr interpolationmode  none
attr source  dropPk
attr title  "packets dropped, sum(packetBytes)"
scalar scenarioPRJP1.node[57].app 	outOfOrderPk:count 	10
attr interpolationmode  none
attr source  outOfOrderPk
attr title  "packets received out of order, count"
scalar scenarioPRJP1.node[57].app 	outOfOrderPk:sum(packetBytes) 	5120
attr interpolationmode  none
attr source  outOfOrderPk
attr title  "packets received out of order, sum(packetBytes)"
scalar scenarioPRJP1.node[57].app 	rcvdPk:count 	21
attr interpolationmode  none
attr source  rcvdPk
attr title  "packets received, count"
scalar scenarioPRJP1.node[57].app 	rcvdPk:sum(packetBytes) 	10752
attr interpolationmode  none
attr source  rcvdPk
attr title  "packets received, sum(packetBytes)"
statistic scenarioPRJP1.node[57].app 	endToEndDelay:histogram
field count 21
field mean 1.3408479366082
field stddev 2.1457636189977
field sum 28.157806668773
field sqrsum 129.84136714352
field min 0.002028228
field max 6.852357110459
attr interpolationmode  none
attr source  messageAge(rcvdPk)
attr title  "delay, histogram"
attr unit  s
bin	-INF	0
bin	-3.4231362132295	0
bin	-2.9664476210656	0
bin	-2.5097590289016	0
bin	-2.0530704367377	0
bin	-1.5963818445738	0
bin	-1.1396932524098	0
bin	-0.6830046602459	0
bin	-0.22631606808197	12
bin	0.23037252408197	1
bin	0.6870611162459	1
bin	1.1437497084098	2
bin	1.6004383005738	0
bin	2.0571268927377	1
bin	2.5138154849016	1
bin	2.9705040770656	0
bin	3.4271926692295	0
bin	3.8838812613934	0
bin	4.3405698535574	0
bin	4.7972584457213	0
bin	5.2539470378852	2
bin	5.7106356300492	0
bin	6.1673242222131	0
bin	6.624012814377	1
bin	7.080701406541	0
bin	7.5373899987049	0
bin	7.9940785908688	0
bin	8.4507671830328	0
bin	8.9074557751967	0
bin	9.3641443673606	0
bin	9.8208329595246	0
bin	10.277521551688	0
scalar scenarioPRJP1.node[57].app 	sentPk:count 	381
attr interpolationmode  none
attr source  sentPk
attr title  "packets sent, count"
scalar scenarioPRJP1.node[57].app 	sentPk:sum(packetBytes) 	195072
attr interpolationmode  none
attr source  sentPk
attr title  "packets sent, sum(packetBytes)"
scalar scenarioPRJP1.node[57].udp 	droppedPkBadChecksum:count 	0
attr interpolationmode  none
attr title  "packets dropped (checksum error), count"
scalar scenarioPRJP1.node[57].udp 	droppedPkWrongPort:count 	0
attr interpolationmode  none
attr title  "packets dropped (wrong port), count"
scalar scenarioPRJP1.node[57].udp 	passedUpPk:count 	32
attr interpolationmode  none
attr title  "packets passed up, count"
scalar scenarioPRJP1.node[57].udp 	rcvdPk:count 	32
attr interpolationmode  none
attr source  rcvdPk
attr title  "packets received, count"
scalar scenarioPRJP1.node[57].udp 	rcvdPk:sum(packetBytes) 	16640
attr interpolationmode  none
attr source  rcvdPk
attr title  "packets received, sum(packetBytes)"
scalar scenarioPRJP1.node[57].udp 	sentPk:count 	381
attr interpolationmode  none
attr source  sentPk
attr title  "packets sent, count"
scalar scenarioPRJP1.node[57].udp 	sentPk:sum(packetBytes) 	198120
attr interpolationmode  none
attr source  sentPk
attr title  "packets sent, sum(packetBytes)"
scalar scenarioPRJP1.node[57].networkLayer.arp 	failedARPResolution:count 	11
attr title  "ARP failed resolutions, count"
scalar scenarioPRJP1.node[57].networkLayer.arp 	completedARPResolution:count 	155
attr title  "ARP completed resolutions, count"
scalar scenarioPRJP1.node[57].networkLayer.arp 	initiatedARPResolution:count 	23
attr title  "ARP initiated resolutions, count"
scalar scenarioPRJP1.node[57].networkLayer.arp 	sentReply:count 	8
attr title  "ARP replies sent, count"
scalar scenarioPRJP1.node[57].networkLayer.arp 	sentReq:count 	54
attr title  "ARP request sent, count"
scalar scenarioPRJP1.node[57].mobility 	startTime 	4.9
scalar scenarioPRJP1.node[57].mobility 	totalTime 	158.1
scalar scenarioPRJP1.node[57].mobility 	stopTime 	163.1
scalar scenarioPRJP1.node[57].mobility 	minSpeed 	2.475970827118e-13
scalar scenarioPRJP1.node[57].mobility 	maxSpeed 	15.697222340407
scalar scenarioPRJP1.node[57].mobility 	totalDistance 	1447.9866271818
scalar scenarioPRJP1.node[57].mobility 	totalCO2Emission 	387.61916945858
scalar scenarioPRJP1.node[57].wlan.mgmt 	dataQueueLen:max 	22
attr interpolationmode  sample-hold
attr title  "data queue length, max"
scalar scenarioPRJP1.node[57].wlan.mgmt 	dataQueueLen:timeavg 	0.17474911842296
attr interpolationmode  sample-hold
attr title  "data queue length, timeavg"
scalar scenarioPRJP1.node[57].wlan.mgmt 	dropPkByQueue:count 	0
attr interpolationmode  none
attr source  dropPkByQueue
attr title  "packets dropped by queue, count"
scalar scenarioPRJP1.node[57].wlan.mgmt 	dropPkByQueue:sum(packetBytes) 	0
attr interpolationmode  none
attr source  dropPkByQueue
attr title  "packets dropped by queue, sum(packetBytes)"
scalar scenarioPRJP1.node[57].wlan.mac 	"number of received packets" 	2318
scalar scenarioPRJP1.node[57].wlan.mac 	"number of collisions" 	21217
scalar scenarioPRJP1.node[57].wlan.mac 	"number of internal collisions" 	0
scalar scenarioPRJP1.node[57].wlan.mac 	"number of retry for AC 0" 	5815
scalar scenarioPRJP1.node[57].wlan.mac 	"number of retry for AC 1" 	0
scalar scenarioPRJP1.node[57].wlan.mac 	"number of retry for AC 2" 	0
scalar scenarioPRJP1.node[57].wlan.mac 	"number of retry for AC 3" 	0
scalar scenarioPRJP1.node[57].wlan.mac 	"sent and received bits" 	6069664
scalar scenarioPRJP1.node[57].wlan.mac 	"sent packet within AC 0" 	1525
scalar scenarioPRJP1.node[57].wlan.mac 	"sent packet within AC 1" 	0
scalar scenarioPRJP1.node[57].wlan.mac 	"sent packet within AC 2" 	0
scalar scenarioPRJP1.node[57].wlan.mac 	"sent packet within AC 3" 	0
scalar scenarioPRJP1.node[57].wlan.mac 	"sent in TXOP " 	0
scalar scenarioPRJP1.node[57].wlan.mac 	"sentWithoutRetry AC 0" 	1382
scalar scenarioPRJP1.node[57].wlan.mac 	"sentWithoutRetry AC 1" 	0
scalar scenarioPRJP1.node[57].wlan.mac 	"sentWithoutRetry AC 2" 	0
scalar scenarioPRJP1.node[57].wlan.mac 	"sentWithoutRetry AC 3" 	0
scalar scenarioPRJP1.node[57].wlan.mac 	"numGivenUp AC 0" 	920
scalar scenarioPRJP1.node[57].wlan.mac 	"numGivenUp AC 1" 	0
scalar scenarioPRJP1.node[57].wlan.mac 	"numGivenUp AC 2" 	0
scalar scenarioPRJP1.node[57].wlan.mac 	"numGivenUp AC 3" 	0
scalar scenarioPRJP1.node[57].wlan.mac 	"numDropped AC 0" 	223
scalar scenarioPRJP1.node[57].wlan.mac 	"numDropped AC 1" 	0
scalar scenarioPRJP1.node[57].wlan.mac 	"numDropped AC 2" 	0
scalar scenarioPRJP1.node[57].wlan.mac 	"numDropped AC 3" 	0
scalar scenarioPRJP1.node[57].wlan.mac 	rcvdPkFromLL:count 	109261
attr interpolationmode  none
attr source  packetReceivedFromLower
attr title  "packets received from lower layer, count"
scalar scenarioPRJP1.node[57].wlan.mac 	rcvdPkFromLL:sum(packetBytes) 	19911582
attr interpolationmode  none
attr source  packetReceivedFromLower
attr title  "packets received from lower layer, sum(packetBytes)"
scalar scenarioPRJP1.node[57].wlan.mac 	sentDownPk:count 	15848
attr interpolationmode  none
attr source  packetSentToLower
attr title  "packets sent to lower layer, count"
scalar scenarioPRJP1.node[57].wlan.mac 	sentDownPk:sum(packetBytes) 	3356772
attr interpolationmode  none
attr source  packetSentToLower
attr title  "packets sent to lower layer, sum(packetBytes)"
scalar scenarioPRJP1.node[57].wlan.mac 	rcvdPkFromHL:count 	7938
attr interpolationmode  none
attr source  packetReceivedFromUpper
attr title  "packets received from higher layer, count"
scalar scenarioPRJP1.node[57].wlan.mac 	rcvdPkFromHL:sum(packetBytes) 	1143708
attr interpolationmode  none
attr source  packetReceivedFromUpper
attr title  "packets received from higher layer, sum(packetBytes)"
scalar scenarioPRJP1.node[57].wlan.mac 	passedUpPk:count 	30073
attr interpolationmode  none
attr source  packetSentToUpper
attr title  "packets passed to higher layer, count"
scalar scenarioPRJP1.node[57].wlan.mac 	passedUpPk:sum(packetBytes) 	2551512
attr interpolationmode  none
attr source  packetSentToUpper
attr title  "packets passed to higher layer, sum(packetBytes)"
statistic scenarioPRJP1.node[57].wlan.radio 	radioChannel:histogram
field count 1
field mean 3
field stddev -nan
field sum 3
field sqrsum 9
field min 3
field max 3
attr interpolationmode  sample-hold
attr source  radioChannelChanged
attr title  "Radio channel, histogram"
bin	-INF	0
bin	2	0
bin	3	1
bin	4	0
scalar scenarioPRJP1.node[57].wlan.radio 	transmissionState:count 	63392
attr interpolationmode  sample-hold
attr source  transmissionStateChanged
attr title  "Radio transmission state, count"
scalar scenarioPRJP1.node[57].wlan.radio 	receptionState:count 	254905
attr interpolationmode  sample-hold
attr source  receptionStateChanged
attr title  "Radio reception state, count"
scalar scenarioPRJP1.node[57].wlan.radio 	radioMode:count 	31698
attr interpolationmode  sample-hold
attr source  radioModeChanged
attr title  "Radio mode, count"
statistic scenarioPRJP1.node[57].wlan.radio 	symbolErrorRate:histogram
field count 0
field mean -nan
field stddev -nan
field sum 0
field sqrsum 0
field min -nan
field max -nan
attr source  symbolErrorRate
attr title  "Symbol error rate, histogram"
bin	-INF	0
bin	-0.5	0
bin	-0.46666666666667	0
bin	-0.43333333333333	0
bin	-0.4	0
bin	-0.36666666666667	0
bin	-0.33333333333333	0
bin	-0.3	0
bin	-0.26666666666667	0
bin	-0.23333333333333	0
bin	-0.2	0
bin	-0.16666666666667	0
bin	-0.13333333333333	0
bin	-0.1	0
bin	-0.066666666666667	0
bin	-0.033333333333333	0
bin	0	0
bin	0.033333333333333	0
bin	0.066666666666667	0
bin	0.1	0
bin	0.13333333333333	0
bin	0.16666666666667	0
bin	0.2	0
bin	0.23333333333333	0
bin	0.26666666666667	0
bin	0.3	0
bin	0.33333333333333	0
bin	0.36666666666667	0
bin	0.4	0
bin	0.43333333333333	0
bin	0.46666666666667	0
bin	0.5	0
statistic scenarioPRJP1.node[57].wlan.radio 	bitErrorRate:histogram
field count 0
field mean -nan
field stddev -nan
field sum 0
field sqrsum 0
field min -nan
field max -nan
attr source  bitErrorRate
attr title  "Bit error rate, histogram"
bin	-INF	0
bin	-0.5	0
bin	-0.46666666666667	0
bin	-0.43333333333333	0
bin	-0.4	0
bin	-0.36666666666667	0
bin	-0.33333333333333	0
bin	-0.3	0
bin	-0.26666666666667	0
bin	-0.23333333333333	0
bin	-0.2	0
bin	-0.16666666666667	0
bin	-0.13333333333333	0
bin	-0.1	0
bin	-0.066666666666667	0
bin	-0.033333333333333	0
bin	0	0
bin	0.033333333333333	0
bin	0.066666666666667	0
bin	0.1	0
bin	0.13333333333333	0
bin	0.16666666666667	0
bin	0.2	0
bin	0.23333333333333	0
bin	0.26666666666667	0
bin	0.3	0
bin	0.33333333333333	0
bin	0.36666666666667	0
bin	0.4	0
bin	0.43333333333333	0
bin	0.46666666666667	0
bin	0.5	0
statistic scenarioPRJP1.node[57].wlan.radio 	packetErrorRate:histogram
field count 109261
field mean 0.17449431040253
field stddev 0.37078212378497
field sum 19065.422848891
field sqrsum 18347.805233928
field min 0
field max 1
attr source  packetErrorRate
attr title  "Packet error rate, histogram"
bin	-INF	0
bin	-0.5	0
bin	-0.43333333333333	0
bin	-0.36666666666667	0
bin	-0.3	0
bin	-0.23333333333333	0
bin	-0.16666666666667	0
bin	-0.1	0
bin	-0.033333333333333	87214
bin	0.033333333333333	1220
bin	0.1	631
bin	0.16666666666667	371
bin	0.23333333333333	317
bin	0.3	243
bin	0.36666666666667	254
bin	0.43333333333333	192
bin	0.5	184
bin	0.56666666666667	179
bin	0.63333333333333	186
bin	0.7	204
bin	0.76666666666667	190
bin	0.83333333333333	240
bin	0.9	374
bin	0.96666666666667	17262
bin	1.0333333333333	0
bin	1.1	0
bin	1.1666666666667	0
bin	1.2333333333333	0
bin	1.3	0
bin	1.3666666666667	0
bin	1.4333333333333	0
bin	1.5	0
statistic scenarioPRJP1.node[57].wlan.radio 	minSNIR:histogram
field count 109261
field mean 580.71636545383
field stddev 4991.3295998091
field sum 63449650.805851
field sqrsum 2758881185068.9
field min 0.00059545930428647
field max 185181.67046747
attr source  minSNIR
attr title  "Min SNIR, histogram"
bin	-INF	0
bin	-490.62256926513	0
bin	-425.14061062976	0
bin	-359.65865199439	0
bin	-294.17669335903	0
bin	-228.69473472366	0
bin	-163.2127760883	0
bin	-97.73081745293	0
bin	-32.248858817564	60078
bin	33.233099817802	13483
bin	98.715058453168	5657
bin	164.19701708853	3784
bin	229.6789757239	3055
bin	295.16093435927	2402
bin	360.64289299463	2006
bin	426.12485163	1556
bin	491.60681026537	1240
bin	557.08876890073	1075
bin	622.5707275361	941
bin	688.05268617146	888
bin	753.53464480683	751
bin	819.0166034422	722
bin	884.49856207756	697
bin	949.98052071293	619
bin	1015.4624793483	584
bin	1080.9444379837	490
bin	1146.426396619	526
bin	1211.9083552544	415
bin	1277.3903138898	447
bin	1342.8722725251	385
bin	1408.3542311605	358
bin	1473.8361897959	7102
scalar scenarioPRJP1.node[57].lo0.lo 	droppedPkBitError:count 	0
attr interpolationmode  none
attr source  dropPkBitError
attr title  "packets dropped/bit error, count"
scalar scenarioPRJP1.node[57].lo0.lo 	droppedPkBitError:sum(packetBytes) 	0
attr interpolationmode  none
attr source  dropPkBitError
attr title  "packets dropped/bit error, sum(packetBytes)"
scalar scenarioPRJP1.node[57].lo0.lo 	rcvdPkFromHL:count 	32
attr interpolationmode  none
attr source  packetReceivedFromUpper
attr title  "packets received from higher layer, count"
scalar scenarioPRJP1.node[57].lo0.lo 	rcvdPkFromHL:sum(packetBytes) 	16640
attr interpolationmode  none
attr source  packetReceivedFromUpper
attr title  "packets received from higher layer, sum(packetBytes)"
scalar scenarioPRJP1.node[57].lo0.lo 	passedUpPk:count 	32
attr interpolationmode  none
attr source  packetSentToUpper
attr title  "packets passed to higher layer, count"
scalar scenarioPRJP1.node[57].lo0.lo 	passedUpPk:sum(packetBytes) 	16640
attr interpolationmode  none
attr source  packetSentToUpper
attr title  "packets passed to higher layer, sum(packetBytes)"
scalar scenarioPRJP1.node[33].app 	"Total sent" 	621
scalar scenarioPRJP1.node[33].app 	"Total received" 	19
scalar scenarioPRJP1.node[33].app 	"Total deleted" 	4
scalar scenarioPRJP1.node[33].app 	dropPk:count 	4
attr interpolationmode  none
attr source  dropPk
attr title  "packets dropped, count"
scalar scenarioPRJP1.node[33].app 	dropPk:sum(packetBytes) 	2048
attr interpolationmode  none
attr source  dropPk
attr title  "packets dropped, sum(packetBytes)"
scalar scenarioPRJP1.node[33].app 	outOfOrderPk:count 	2
attr interpolationmode  none
attr source  outOfOrderPk
attr title  "packets received out of order, count"
scalar scenarioPRJP1.node[33].app 	outOfOrderPk:sum(packetBytes) 	1024
attr interpolationmode  none
attr source  outOfOrderPk
attr title  "packets received out of order, sum(packetBytes)"
scalar scenarioPRJP1.node[33].app 	rcvdPk:count 	19
attr interpolationmode  none
attr source  rcvdPk
attr title  "packets received, count"
scalar scenarioPRJP1.node[33].app 	rcvdPk:sum(packetBytes) 	9728
attr interpolationmode  none
attr source  rcvdPk
attr title  "packets received, sum(packetBytes)"
statistic scenarioPRJP1.node[33].app 	endToEndDelay:histogram
field count 19
field mean 4.0063699466815
field stddev 5.5482113968638
field sum 76.121028986949
field sqrsum 859.05669752099
field min 0.001080051197
field max 14.909260653127
attr interpolationmode  none
attr source  messageAge(rcvdPk)
attr title  "delay, histogram"
attr unit  s
bin	-INF	0
bin	-7.453010249768	0
bin	-6.4591315429727	0
bin	-5.4652528361773	0
bin	-4.471374129382	0
bin	-3.4774954225867	0
bin	-2.4836167157913	0
bin	-1.489738008996	0
bin	-0.49585930220067	9
bin	0.49801940459467	1
bin	1.49189811139	3
bin	2.4857768181853	0
bin	3.4796555249807	0
bin	4.473534231776	0
bin	5.4674129385713	0
bin	6.4612916453667	1
bin	7.455170352162	1
bin	8.4490490589573	0
bin	9.4429277657527	1
bin	10.436806472548	0
bin	11.430685179343	0
bin	12.424563886139	0
bin	13.418442592934	2
bin	14.412321299729	1
bin	15.406200006525	0
bin	16.40007871332	0
bin	17.393957420115	0
bin	18.387836126911	0
bin	19.381714833706	0
bin	20.375593540501	0
bin	21.369472247297	0
bin	22.363350954092	0
scalar scenarioPRJP1.node[33].app 	sentPk:count 	621
attr interpolationmode  none
attr source  sentPk
attr title  "packets sent, count"
scalar scenarioPRJP1.node[33].app 	sentPk:sum(packetBytes) 	317952
attr interpolationmode  none
attr source  sentPk
attr title  "packets sent, sum(packetBytes)"
scalar scenarioPRJP1.node[33].udp 	droppedPkBadChecksum:count 	0
attr interpolationmode  none
attr title  "packets dropped (checksum error), count"
scalar scenarioPRJP1.node[33].udp 	droppedPkWrongPort:count 	0
attr interpolationmode  none
attr title  "packets dropped (wrong port), count"
scalar scenarioPRJP1.node[33].udp 	passedUpPk:count 	25
attr interpolationmode  none
attr title  "packets passed up, count"
scalar scenarioPRJP1.node[33].udp 	rcvdPk:count 	25
attr interpolationmode  none
attr source  rcvdPk
attr title  "packets received, count"
scalar scenarioPRJP1.node[33].udp 	rcvdPk:sum(packetBytes) 	13000
attr interpolationmode  none
attr source  rcvdPk
attr title  "packets received, sum(packetBytes)"
scalar scenarioPRJP1.node[33].udp 	sentPk:count 	621
attr interpolationmode  none
attr source  sentPk
attr title  "packets sent, count"
scalar scenarioPRJP1.node[33].udp 	sentPk:sum(packetBytes) 	322920
attr interpolationmode  none
attr source  sentPk
attr title  "packets sent, sum(packetBytes)"
scalar scenarioPRJP1.node[33].networkLayer.arp 	failedARPResolution:count 	8
attr title  "ARP failed resolutions, count"
scalar scenarioPRJP1.node[33].networkLayer.arp 	completedARPResolution:count 	228
attr title  "ARP completed resolutions, count"
scalar scenarioPRJP1.node[33].networkLayer.arp 	initiatedARPResolution:count 	27
attr title  "ARP initiated resolutions, count"
scalar scenarioPRJP1.node[33].networkLayer.arp 	sentReply:count 	19
attr title  "ARP replies sent, count"
scalar scenarioPRJP1.node[33].networkLayer.arp 	sentReq:count 	48
attr title  "ARP request sent, count"
scalar scenarioPRJP1.node[33].mobility 	startTime 	2.5
scalar scenarioPRJP1.node[33].mobility 	totalTime 	244
scalar scenarioPRJP1.node[33].mobility 	stopTime 	246.6
scalar scenarioPRJP1.node[33].mobility 	minSpeed 	2.4758580778324e-13
scalar scenarioPRJP1.node[33].mobility 	maxSpeed 	17.603775954791
scalar scenarioPRJP1.node[33].mobility 	totalDistance 	2234.3885271351
scalar scenarioPRJP1.node[33].mobility 	totalCO2Emission 	648.73722734468
scalar scenarioPRJP1.node[33].wlan.mgmt 	dataQueueLen:max 	67
attr interpolationmode  sample-hold
attr title  "data queue length, max"
scalar scenarioPRJP1.node[33].wlan.mgmt 	dataQueueLen:timeavg 	0.4148718856744
attr interpolationmode  sample-hold
attr title  "data queue length, timeavg"
scalar scenarioPRJP1.node[33].wlan.mgmt 	dropPkByQueue:count 	0
attr interpolationmode  none
attr source  dropPkByQueue
attr title  "packets dropped by queue, count"
scalar scenarioPRJP1.node[33].wlan.mgmt 	dropPkByQueue:sum(packetBytes) 	0
attr interpolationmode  none
attr source  dropPkByQueue
attr title  "packets dropped by queue, sum(packetBytes)"
scalar scenarioPRJP1.node[33].wlan.mac 	"number of received packets" 	2695
scalar scenarioPRJP1.node[33].wlan.mac 	"number of collisions" 	24489
scalar scenarioPRJP1.node[33].wlan.mac 	"number of internal collisions" 	0
scalar scenarioPRJP1.node[33].wlan.mac 	"number of retry for AC 0" 	6227
scalar scenarioPRJP1.node[33].wlan.mac 	"number of retry for AC 1" 	0
scalar scenarioPRJP1.node[33].wlan.mac 	"number of retry for AC 2" 	0
scalar scenarioPRJP1.node[33].wlan.mac 	"number of retry for AC 3" 	0
scalar scenarioPRJP1.node[33].wlan.mac 	"sent and received bits" 	7445024
scalar scenarioPRJP1.node[33].wlan.mac 	"sent packet within AC 0" 	1452
scalar scenarioPRJP1.node[33].wlan.mac 	"sent packet within AC 1" 	0
scalar scenarioPRJP1.node[33].wlan.mac 	"sent packet within AC 2" 	0
scalar scenarioPRJP1.node[33].wlan.mac 	"sent packet within AC 3" 	0
scalar scenarioPRJP1.node[33].wlan.mac 	"sent in TXOP " 	0
scalar scenarioPRJP1.node[33].wlan.mac 	"sentWithoutRetry AC 0" 	1262
scalar scenarioPRJP1.node[33].wlan.mac 	"sentWithoutRetry AC 1" 	0
scalar scenarioPRJP1.node[33].wlan.mac 	"sentWithoutRetry AC 2" 	0
scalar scenarioPRJP1.node[33].wlan.mac 	"sentWithoutRetry AC 3" 	0
scalar scenarioPRJP1.node[33].wlan.mac 	"numGivenUp AC 0" 	972
scalar scenarioPRJP1.node[33].wlan.mac 	"numGivenUp AC 1" 	0
scalar scenarioPRJP1.node[33].wlan.mac 	"numGivenUp AC 2" 	0
scalar scenarioPRJP1.node[33].wlan.mac 	"numGivenUp AC 3" 	0
scalar scenarioPRJP1.node[33].wlan.mac 	"numDropped AC 0" 	159
scalar scenarioPRJP1.node[33].wlan.mac 	"numDropped AC 1" 	0
scalar scenarioPRJP1.node[33].wlan.mac 	"numDropped AC 2" 	0
scalar scenarioPRJP1.node[33].wlan.mac 	"numDropped AC 3" 	0
scalar scenarioPRJP1.node[33].wlan.mac 	rcvdPkFromLL:count 	97727
attr interpolationmode  none
attr source  packetReceivedFromLower
attr title  "packets received from lower layer, count"
scalar scenarioPRJP1.node[33].wlan.mac 	rcvdPkFromLL:sum(packetBytes) 	19630224
attr interpolationmode  none
attr source  packetReceivedFromLower
attr title  "packets received from lower layer, sum(packetBytes)"
scalar scenarioPRJP1.node[33].wlan.mac 	sentDownPk:count 	18576
attr interpolationmode  none
attr source  packetSentToLower
attr title  "packets sent to lower layer, count"
scalar scenarioPRJP1.node[33].wlan.mac 	sentDownPk:sum(packetBytes) 	3403102
attr interpolationmode  none
attr source  packetSentToLower
attr title  "packets sent to lower layer, sum(packetBytes)"
scalar scenarioPRJP1.node[33].wlan.mac 	rcvdPkFromHL:count 	9813
attr interpolationmode  none
attr source  packetReceivedFromUpper
attr title  "packets received from higher layer, count"
scalar scenarioPRJP1.node[33].wlan.mac 	rcvdPkFromHL:sum(packetBytes) 	1288560
attr interpolationmode  none
attr source  packetReceivedFromUpper
attr title  "packets received from higher layer, sum(packetBytes)"
scalar scenarioPRJP1.node[33].wlan.mac 	passedUpPk:count 	25865
attr interpolationmode  none
attr source  packetSentToUpper
attr title  "packets passed to higher layer, count"
scalar scenarioPRJP1.node[33].wlan.mac 	passedUpPk:sum(packetBytes) 	2233924
attr interpolationmode  none
attr source  packetSentToUpper
attr title  "packets passed to higher layer, sum(packetBytes)"
statistic scenarioPRJP1.node[33].wlan.radio 	radioChannel:histogram
field count 1
field mean 3
field stddev -nan
field sum 3
field sqrsum 9
field min 3
field max 3
attr interpolationmode  sample-hold
attr source  radioChannelChanged
attr title  "Radio channel, histogram"
bin	-INF	0
bin	2	0
bin	3	1
bin	4	0
scalar scenarioPRJP1.node[33].wlan.radio 	transmissionState:count 	74304
attr interpolationmode  sample-hold
attr source  transmissionStateChanged
attr title  "Radio transmission state, count"
scalar scenarioPRJP1.node[33].wlan.radio 	receptionState:count 	237344
attr interpolationmode  sample-hold
attr source  receptionStateChanged
attr title  "Radio reception state, count"
scalar scenarioPRJP1.node[33].wlan.radio 	radioMode:count 	37154
attr interpolationmode  sample-hold
attr source  radioModeChanged
attr title  "Radio mode, count"
statistic scenarioPRJP1.node[33].wlan.radio 	symbolErrorRate:histogram
field count 0
field mean -nan
field stddev -nan
field sum 0
field sqrsum 0
field min -nan
field max -nan
attr source  symbolErrorRate
attr title  "Symbol error rate, histogram"
bin	-INF	0
bin	-0.5	0
bin	-0.46666666666667	0
bin	-0.43333333333333	0
bin	-0.4	0
bin	-0.36666666666667	0
bin	-0.33333333333333	0
bin	-0.3	0
bin	-0.26666666666667	0
bin	-0.23333333333333	0
bin	-0.2	0
bin	-0.16666666666667	0
bin	-0.13333333333333	0
bin	-0.1	0
bin	-0.066666666666667	0
bin	-0.033333333333333	0
bin	0	0
bin	0.033333333333333	0
bin	0.066666666666667	0
bin	0.1	0
bin	0.13333333333333	0
bin	0.16666666666667	0
bin	0.2	0
bin	0.23333333333333	0
bin	0.26666666666667	0
bin	0.3	0
bin	0.33333333333333	0
bin	0.36666666666667	0
bin	0.4	0
bin	0.43333333333333	0
bin	0.46666666666667	0
bin	0.5	0
statistic scenarioPRJP1.node[33].wlan.radio 	bitErrorRate:histogram
field count 0
field mean -nan
field stddev -nan
field sum 0
field sqrsum 0
field min -nan
field max -nan
attr source  bitErrorRate
attr title  "Bit error rate, histogram"
bin	-INF	0
bin	-0.5	0
bin	-0.46666666666667	0
bin	-0.43333333333333	0
bin	-0.4	0
bin	-0.36666666666667	0
bin	-0.33333333333333	0
bin	-0.3	0
bin	-0.26666666666667	0
bin	-0.23333333333333	0
bin	-0.2	0
bin	-0.16666666666667	0
bin	-0.13333333333333	0
bin	-0.1	0
bin	-0.066666666666667	0
bin	-0.033333333333333	0
bin	0	0
bin	0.033333333333333	0
bin	0.066666666666667	0
bin	0.1	0
bin	0.13333333333333	0
bin	0.16666666666667	0
bin	0.2	0
bin	0.23333333333333	0
bin	0.26666666666667	0
bin	0.3	0
bin	0.33333333333333	0
bin	0.36666666666667	0
bin	0.4	0
bin	0.43333333333333	0
bin	0.46666666666667	0
bin	0.5	0
statistic scenarioPRJP1.node[33].wlan.radio 	packetErrorRate:histogram
field count 97727
field mean 0.22498238630203
field stddev 0.40658077220819
field sum 21986.853666138
field sqrsum 21101.537018097
field min 0
field max 1
attr source  packetErrorRate
attr title  "Packet error rate, histogram"
bin	-INF	0
bin	-0.30178132134243	0
bin	-0.26154381183011	0
bin	-0.22130630231778	0
bin	-0.18106879280546	0
bin	-0.14083128329314	0
bin	-0.10059377378081	0
bin	-0.060356264268487	0
bin	-0.020118754756162	71384
bin	0.020118754756162	1506
bin	0.060356264268487	720
bin	0.10059377378081	454
bin	0.14083128329314	357
bin	0.18106879280546	293
bin	0.22130630231778	264
bin	0.26154381183011	207
bin	0.30178132134243	220
bin	0.34201883085476	189
bin	0.38225634036708	164
bin	0.42249384987941	159
bin	0.46273135939173	125
bin	0.50296886890405	142
bin	0.54320637841638	140
bin	0.5834438879287	148
bin	0.62368139744103	149
bin	0.66391890695335	119
bin	0.70415641646568	158
bin	0.744393925978	125
bin	0.78463143549032	167
bin	0.82486894500265	159
bin	0.86510645451497	182
bin	0.9053439640273	20196
statistic scenarioPRJP1.node[33].wlan.radio 	minSNIR:histogram
field count 97727
field mean 2094.9435879644
field stddev 22625.118543452
field sum 204732552.02099
field sqrsum 50454450578405
field min 0.00017005620284005
field max 753239.71923443
attr source  minSNIR
attr title  "Min SNIR, histogram"
bin	-INF	0
bin	-1899.3210513533	0
bin	-1645.7548882583	0
bin	-1392.1887251633	0
bin	-1138.6225620683	0
bin	-885.05639897328	0
bin	-631.49023587828	0
bin	-377.92407278328	0
bin	-124.35790968828	76910
bin	129.20825340672	4634
bin	382.77441650172	1523
bin	636.34057959672	1197
bin	889.90674269172	1029
bin	1143.4729057867	766
bin	1397.0390688817	628
bin	1650.6052319767	439
bin	1904.1713950717	350
bin	2157.7375581667	282
bin	2411.3037212617	260
bin	2664.8698843567	221
bin	2918.4360474517	227
bin	3172.0022105467	272
bin	3425.5683736417	281
bin	3679.1345367367	277
bin	3932.7006998317	306
bin	4186.2668629267	314
bin	4439.8330260217	289
bin	4693.3991891167	323
bin	4946.9653522117	272
bin	5200.5315153067	246
bin	5454.0976784017	224
bin	5707.6638414967	6457
scalar scenarioPRJP1.node[33].lo0.lo 	droppedPkBitError:count 	0
attr interpolationmode  none
attr source  dropPkBitError
attr title  "packets dropped/bit error, count"
scalar scenarioPRJP1.node[33].lo0.lo 	droppedPkBitError:sum(packetBytes) 	0
attr interpolationmode  none
attr source  dropPkBitError
attr title  "packets dropped/bit error, sum(packetBytes)"
scalar scenarioPRJP1.node[33].lo0.lo 	rcvdPkFromHL:count 	25
attr interpolationmode  none
attr source  packetReceivedFromUpper
attr title  "packets received from higher layer, count"
scalar scenarioPRJP1.node[33].lo0.lo 	rcvdPkFromHL:sum(packetBytes) 	13000
attr interpolationmode  none
attr source  packetReceivedFromUpper
attr title  "packets received from higher layer, sum(packetBytes)"
scalar scenarioPRJP1.node[33].lo0.lo 	passedUpPk:count 	25
attr interpolationmode  none
attr source  packetSentToUpper
attr title  "packets passed to higher layer, count"
scalar scenarioPRJP1.node[33].lo0.lo 	passedUpPk:sum(packetBytes) 	13000
attr interpolationmode  none
attr source  packetSentToUpper
attr title  "packets passed to higher layer, sum(packetBytes)"
scalar scenarioPRJP1.node[99].app 	"Total sent" 	721
scalar scenarioPRJP1.node[99].app 	"Total received" 	45
scalar scenarioPRJP1.node[99].app 	"Total deleted" 	0
scalar scenarioPRJP1.node[99].app 	dropPk:count 	0
attr interpolationmode  none
attr source  dropPk
attr title  "packets dropped, count"
scalar scenarioPRJP1.node[99].app 	dropPk:sum(packetBytes) 	0
attr interpolationmode  none
attr source  dropPk
attr title  "packets dropped, sum(packetBytes)"
scalar scenarioPRJP1.node[99].app 	outOfOrderPk:count 	15
attr interpolationmode  none
attr source  outOfOrderPk
attr title  "packets received out of order, count"
scalar scenarioPRJP1.node[99].app 	outOfOrderPk:sum(packetBytes) 	7680
attr interpolationmode  none
attr source  outOfOrderPk
attr title  "packets received out of order, sum(packetBytes)"
scalar scenarioPRJP1.node[99].app 	rcvdPk:count 	45
attr interpolationmode  none
attr source  rcvdPk
attr title  "packets received, count"
scalar scenarioPRJP1.node[99].app 	rcvdPk:sum(packetBytes) 	23040
attr interpolationmode  none
attr source  rcvdPk
attr title  "packets received, sum(packetBytes)"
statistic scenarioPRJP1.node[99].app 	endToEndDelay:histogram
field count 45
field mean 1.4068650668715
field stddev 2.4133913964364
field sum 63.308928009216
field sqrsum 345.34327266255
field min 0.002037450627
field max 9.182658134127
attr interpolationmode  none
attr source  messageAge(rcvdPk)
attr title  "delay, histogram"
attr unit  s
bin	-INF	0
bin	-4.588272891123	0
bin	-3.976231512223	0
bin	-3.364190133323	0
bin	-2.752148754423	0
bin	-2.140107375523	0
bin	-1.528065996623	0
bin	-0.916024617723	0
bin	-0.303983238823	25
bin	0.308058140077	6
bin	0.920099518977	1
bin	1.532140897877	3
bin	2.144182276777	2
bin	2.756223655677	1
bin	3.368265034577	2
bin	3.980306413477	0
bin	4.592347792377	1
bin	5.204389171277	0
bin	5.816430550177	0
bin	6.428471929077	0
bin	7.040513307977	2
bin	7.652554686877	0
bin	8.264596065777	1
bin	8.876637444677	1
bin	9.488678823577	0
bin	10.100720202477	0
bin	10.712761581377	0
bin	11.324802960277	0
bin	11.936844339177	0
bin	12.548885718077	0
bin	13.160927096977	0
bin	13.772968475877	0
scalar scenarioPRJP1.node[99].app 	sentPk:count 	721
attr interpolationmode  none
attr source  sentPk
attr title  "packets sent, count"
scalar scenarioPRJP1.node[99].app 	sentPk:sum(packetBytes) 	369152
attr interpolationmode  none
attr source  sentPk
attr title  "packets sent, sum(packetBytes)"
scalar scenarioPRJP1.node[99].udp 	droppedPkBadChecksum:count 	0
attr interpolationmode  none
attr title  "packets dropped (checksum error), count"
scalar scenarioPRJP1.node[99].udp 	droppedPkWrongPort:count 	0
attr interpolationmode  none
attr title  "packets dropped (wrong port), count"
scalar scenarioPRJP1.node[99].udp 	passedUpPk:count 	60
attr interpolationmode  none
attr title  "packets passed up, count"
scalar scenarioPRJP1.node[99].udp 	rcvdPk:count 	60
attr interpolationmode  none
attr source  rcvdPk
attr title  "packets received, count"
scalar scenarioPRJP1.node[99].udp 	rcvdPk:sum(packetBytes) 	31200
attr interpolationmode  none
attr source  rcvdPk
attr title  "packets received, sum(packetBytes)"
scalar scenarioPRJP1.node[99].udp 	sentPk:count 	721
attr interpolationmode  none
attr source  sentPk
attr title  "packets sent, count"
scalar scenarioPRJP1.node[99].udp 	sentPk:sum(packetBytes) 	374920
attr interpolationmode  none
attr source  sentPk
attr title  "packets sent, sum(packetBytes)"
scalar scenarioPRJP1.node[99].networkLayer.arp 	failedARPResolution:count 	10
attr title  "ARP failed resolutions, count"
scalar scenarioPRJP1.node[99].networkLayer.arp 	completedARPResolution:count 	326
attr title  "ARP completed resolutions, count"
scalar scenarioPRJP1.node[99].networkLayer.arp 	initiatedARPResolution:count 	45
attr title  "ARP initiated resolutions, count"
scalar scenarioPRJP1.node[99].networkLayer.arp 	sentReply:count 	16
attr title  "ARP replies sent, count"
scalar scenarioPRJP1.node[99].networkLayer.arp 	sentReq:count 	86
attr title  "ARP request sent, count"
scalar scenarioPRJP1.node[99].mobility 	startTime 	9.9
scalar scenarioPRJP1.node[99].mobility 	totalTime 	274.2
scalar scenarioPRJP1.node[99].mobility 	stopTime 	284.2
scalar scenarioPRJP1.node[99].mobility 	minSpeed 	2.4763243997443e-13
scalar scenarioPRJP1.node[99].mobility 	maxSpeed 	16.986785496982
scalar scenarioPRJP1.node[99].mobility 	totalDistance 	2206.4775585043
scalar scenarioPRJP1.node[99].mobility 	totalCO2Emission 	666.57856300658
scalar scenarioPRJP1.node[99].wlan.mgmt 	dataQueueLen:max 	84
attr interpolationmode  sample-hold
attr title  "data queue length, max"
scalar scenarioPRJP1.node[99].wlan.mgmt 	dataQueueLen:timeavg 	0.94088472218512
attr interpolationmode  sample-hold
attr title  "data queue length, timeavg"
scalar scenarioPRJP1.node[99].wlan.mgmt 	dropPkByQueue:count 	0
attr interpolationmode  none
attr source  dropPkByQueue
attr title  "packets dropped by queue, count"
scalar scenarioPRJP1.node[99].wlan.mgmt 	dropPkByQueue:sum(packetBytes) 	0
attr interpolationmode  none
attr source  dropPkByQueue
attr title  "packets dropped by queue, sum(packetBytes)"
scalar scenarioPRJP1.node[99].wlan.mac 	"number of received packets" 	4494
scalar scenarioPRJP1.node[99].wlan.mac 	"number of collisions" 	43800
scalar scenarioPRJP1.node[99].wlan.mac 	"number of internal collisions" 	0
scalar scenarioPRJP1.node[99].wlan.mac 	"number of retry for AC 0" 	10003
scalar scenarioPRJP1.node[99].wlan.mac 	"number of retry for AC 1" 	0
scalar scenarioPRJP1.node[99].wlan.mac 	"number of retry for AC 2" 	0
scalar scenarioPRJP1.node[99].wlan.mac 	"number of retry for AC 3" 	0
scalar scenarioPRJP1.node[99].wlan.mac 	"sent and received bits" 	11468416
scalar scenarioPRJP1.node[99].wlan.mac 	"sent packet within AC 0" 	3098
scalar scenarioPRJP1.node[99].wlan.mac 	"sent packet within AC 1" 	0
scalar scenarioPRJP1.node[99].wlan.mac 	"sent packet within AC 2" 	0
scalar scenarioPRJP1.node[99].wlan.mac 	"sent packet within AC 3" 	0
scalar scenarioPRJP1.node[99].wlan.mac 	"sent in TXOP " 	0
scalar scenarioPRJP1.node[99].wlan.mac 	"sentWithoutRetry AC 0" 	2755
scalar scenarioPRJP1.node[99].wlan.mac 	"sentWithoutRetry AC 1" 	0
scalar scenarioPRJP1.node[99].wlan.mac 	"sentWithoutRetry AC 2" 	0
scalar scenarioPRJP1.node[99].wlan.mac 	"sentWithoutRetry AC 3" 	0
scalar scenarioPRJP1.node[99].wlan.mac 	"numGivenUp AC 0" 	1559
scalar scenarioPRJP1.node[99].wlan.mac 	"numGivenUp AC 1" 	0
scalar scenarioPRJP1.node[99].wlan.mac 	"numGivenUp AC 2" 	0
scalar scenarioPRJP1.node[99].wlan.mac 	"numGivenUp AC 3" 	0
scalar scenarioPRJP1.node[99].wlan.mac 	"numDropped AC 0" 	266
scalar scenarioPRJP1.node[99].wlan.mac 	"numDropped AC 1" 	0
scalar scenarioPRJP1.node[99].wlan.mac 	"numDropped AC 2" 	0
scalar scenarioPRJP1.node[99].wlan.mac 	"numDropped AC 3" 	0
scalar scenarioPRJP1.node[99].wlan.mac 	rcvdPkFromLL:count 	202264
attr interpolationmode  none
attr source  packetReceivedFromLower
attr title  "packets received from lower layer, count"
scalar scenarioPRJP1.node[99].wlan.mac 	rcvdPkFromLL:sum(packetBytes) 	43483032
attr interpolationmode  none
attr source  packetReceivedFromLower
attr title  "packets received from lower layer, sum(packetBytes)"
scalar scenarioPRJP1.node[99].wlan.mac 	sentDownPk:count 	26849
attr interpolationmode  none
attr source  packetSentToLower
attr title  "packets sent to lower layer, count"
scalar scenarioPRJP1.node[99].wlan.mac 	sentDownPk:sum(packetBytes) 	5291192
attr interpolationmode  none
attr source  packetSentToLower
attr title  "packets sent to lower layer, sum(packetBytes)"
scalar scenarioPRJP1.node[99].wlan.mac 	rcvdPkFromHL:count 	12618
attr interpolationmode  none
attr source  packetReceivedFromUpper
attr title  "packets received from higher layer, count"
scalar scenarioPRJP1.node[99].wlan.mac 	rcvdPkFromHL:sum(packetBytes) 	1996076
attr interpolationmode  none
attr source  packetReceivedFromUpper
attr title  "packets received from higher layer, sum(packetBytes)"
scalar scenarioPRJP1.node[99].wlan.mac 	passedUpPk:count 	41264
attr interpolationmode  none
attr source  packetSentToUpper
attr title  "packets passed to higher layer, count"
scalar scenarioPRJP1.node[99].wlan.mac 	passedUpPk:sum(packetBytes) 	3637548
attr interpolationmode  none
attr source  packetSentToUpper
attr title  "packets passed to higher layer, sum(packetBytes)"
statistic scenarioPRJP1.node[99].wlan.radio 	radioChannel:histogram
field count 1
field mean 3
field stddev -nan
field sum 3
field sqrsum 9
field min 3
field max 3
attr interpolationmode  sample-hold
attr source  radioChannelChanged
attr title  "Radio channel, histogram"
bin	-INF	0
bin	2	0
bin	3	1
bin	4	0
scalar scenarioPRJP1.node[99].wlan.radio 	transmissionState:count 	107396
attr interpolationmode  sample-hold
attr source  transmissionStateChanged
attr title  "Radio transmission state, count"
scalar scenarioPRJP1.node[99].wlan.radio 	receptionState:count 	470191
attr interpolationmode  sample-hold
attr source  receptionStateChanged
attr title  "Radio reception state, count"
scalar scenarioPRJP1.node[99].wlan.radio 	radioMode:count 	53700
attr interpolationmode  sample-hold
attr source  radioModeChanged
attr title  "Radio mode, count"
statistic scenarioPRJP1.node[99].wlan.radio 	symbolErrorRate:histogram
field count 0
field mean -nan
field stddev -nan
field sum 0
field sqrsum 0
field min -nan
field max -nan
attr source  symbolErrorRate
attr title  "Symbol error rate, histogram"
bin	-INF	0
bin	-0.5	0
bin	-0.46666666666667	0
bin	-0.43333333333333	0
[...]
attr source  radioChannelChanged
attr title  "Radio channel, histogram"
bin	-INF	0
bin	2	0
bin	3	1
bin	4	0
scalar scenarioPRJP1.node[75].wlan.radio 	transmissionState:count 	232930
attr interpolationmode  sample-hold
attr source  transmissionStateChanged
attr title  "Radio transmission state, count"
scalar scenarioPRJP1.node[75].wlan.radio 	receptionState:count 	777078
attr interpolationmode  sample-hold
attr source  receptionStateChanged
attr title  "Radio reception state, count"
scalar scenarioPRJP1.node[75].wlan.radio 	radioMode:count 	116467
attr interpolationmode  sample-hold
attr source  radioModeChanged
attr title  "Radio mode, count"
statistic scenarioPRJP1.node[75].wlan.radio 	symbolErrorRate:histogram
field count 0
field mean -nan
field stddev -nan
field sum 0
field sqrsum 0
field min -nan
field max -nan
attr source  symbolErrorRate
attr title  "Symbol error rate, histogram"
bin	-INF	0
bin	-0.5	0
bin	-0.46666666666667	0
bin	-0.43333333333333	0
bin	-0.4	0
bin	-0.36666666666667	0
bin	-0.33333333333333	0
bin	-0.3	0
bin	-0.26666666666667	0
bin	-0.23333333333333	0
bin	-0.2	0
bin	-0.16666666666667	0
bin	-0.13333333333333	0
bin	-0.1	0
bin	-0.066666666666667	0
bin	-0.033333333333333	0
bin	0	0
bin	0.033333333333333	0
bin	0.066666666666667	0
bin	0.1	0
bin	0.13333333333333	0
bin	0.16666666666667	0
bin	0.2	0
bin	0.23333333333333	0
bin	0.26666666666667	0
bin	0.3	0
bin	0.33333333333333	0
bin	0.36666666666667	0
bin	0.4	0
bin	0.43333333333333	0
bin	0.46666666666667	0
bin	0.5	0
statistic scenarioPRJP1.node[75].wlan.radio 	bitErrorRate:histogram
field count 0
field mean -nan
field stddev -nan
field sum 0
field sqrsum 0
field min -nan
field max -nan
attr source  bitErrorRate
attr title  "Bit error rate, histogram"
bin	-INF	0
bin	-0.5	0
bin	-0.46666666666667	0
bin	-0.43333333333333	0
bin	-0.4	0
bin	-0.36666666666667	0
bin	-0.33333333333333	0
bin	-0.3	0
bin	-0.26666666666667	0
bin	-0.23333333333333	0
bin	-0.2	0
bin	-0.16666666666667	0
bin	-0.13333333333333	0
bin	-0.1	0
bin	-0.066666666666667	0
bin	-0.033333333333333	0
bin	0	0
bin	0.033333333333333	0
bin	0.066666666666667	0
bin	0.1	0
bin	0.13333333333333	0
bin	0.16666666666667	0
bin	0.2	0
bin	0.23333333333333	0
bin	0.26666666666667	0
bin	0.3	0
bin	0.33333333333333	0
bin	0.36666666666667	0
bin	0.4	0
bin	0.43333333333333	0
bin	0.46666666666667	0
bin	0.5	0
statistic scenarioPRJP1.node[75].wlan.radio 	packetErrorRate:histogram
field count 313259
field mean 0.23561899250341
field stddev 0.41496813406237
field sum 73809.769972625
field sqrsum 71333.557730244
field min 0
field max 1
attr source  packetErrorRate
attr title  "Packet error rate, histogram"
bin	-INF	100882
bin	-8.3266726846887e-13	0
bin	-7.2164496600635e-13	0
bin	-6.1062266354384e-13	0
bin	-4.9960036108132e-13	0
bin	-3.885780586188e-13	0
bin	-2.7755575615629e-13	0
bin	-1.6653345369377e-13	0
bin	-5.5511151231258e-14	166784
bin	5.5511151231258e-14	1487
bin	1.6653345369377e-13	566
bin	2.7755575615629e-13	342
bin	3.885780586188e-13	278
bin	4.9960036108132e-13	557
bin	6.1062266354384e-13	190
bin	7.2164496600635e-13	149
bin	8.3266726846887e-13	120
bin	9.4368957093138e-13	157
bin	1.0547118733939e-12	251
bin	1.1657341758564e-12	118
bin	1.2767564783189e-12	86
bin	1.3877787807814e-12	93
bin	1.498801083244e-12	134
bin	1.6098233857065e-12	122
bin	1.720845688169e-12	76
bin	1.8318679906315e-12	60
bin	1.942890293094e-12	56
bin	2.0539125955565e-12	126
bin	2.1649348980191e-12	129
bin	2.2759572004816e-12	45
bin	2.3869795029441e-12	59
bin	2.4980018054066e-12	40392
statistic scenarioPRJP1.node[75].wlan.radio 	minSNIR:histogram
field count 313259
field mean 1938.0023826489
field stddev 23775.162431713
field sum 607096688.38621
field sqrsum 1.7824825461134e+14
field min 0.00016772612994419
field max 3004156.9883144
attr source  minSNIR
attr title  "Min SNIR, histogram"
bin	-INF	0
bin	-1824.0078402874	0
bin	-1579.9525948521	0
bin	-1335.8973494168	0
bin	-1091.8421039814	0
bin	-847.78685854611	0
bin	-603.73161311078	0
bin	-359.67636767545	0
bin	-115.62112224012	233052
bin	128.43412319522	28825
bin	372.48936863055	9313
bin	616.54461406588	6122
bin	860.59985950121	4544
bin	1104.6551049365	3206
bin	1348.7103503719	2412
bin	1592.7655958072	1919
bin	1836.8208412425	1514
bin	2080.8760866779	1276
bin	2324.9313321132	1092
bin	2568.9865775485	997
bin	2813.0418229839	901
bin	3057.0970684192	828
bin	3301.1523138545	843
bin	3545.2075592899	771
bin	3789.2628047252	684
bin	4033.3180501605	609
bin	4277.3732955959	544
bin	4521.4285410312	562
bin	4765.4837864665	513
bin	5009.5390319019	461
bin	5253.5942773372	468
bin	5497.6495227725	11803
scalar scenarioPRJP1.node[75].lo0.lo 	droppedPkBitError:count 	0
attr interpolationmode  none
attr source  dropPkBitError
attr title  "packets dropped/bit error, count"
scalar scenarioPRJP1.node[75].lo0.lo 	droppedPkBitError:sum(packetBytes) 	0
attr interpolationmode  none
attr source  dropPkBitError
attr title  "packets dropped/bit error, sum(packetBytes)"
scalar scenarioPRJP1.node[75].lo0.lo 	rcvdPkFromHL:count 	91
attr interpolationmode  none
attr source  packetReceivedFromUpper
attr title  "packets received from higher layer, count"
scalar scenarioPRJP1.node[75].lo0.lo 	rcvdPkFromHL:sum(packetBytes) 	47320
attr interpolationmode  none
attr source  packetReceivedFromUpper
attr title  "packets received from higher layer, sum(packetBytes)"
scalar scenarioPRJP1.node[75].lo0.lo 	passedUpPk:count 	91
attr interpolationmode  none
attr source  packetSentToUpper
attr title  "packets passed to higher layer, count"
scalar scenarioPRJP1.node[75].lo0.lo 	passedUpPk:sum(packetBytes) 	47320
attr interpolationmode  none
attr source  packetSentToUpper
attr title  "packets passed to higher layer, sum(packetBytes)"
scalar scenarioPRJP1.node[95].app 	"Total sent" 	2609
scalar scenarioPRJP1.node[95].app 	"Total received" 	99
scalar scenarioPRJP1.node[95].app 	"Total deleted" 	6
scalar scenarioPRJP1.node[95].app 	dropPk:count 	6
attr interpolationmode  none
attr source  dropPk
attr title  "packets dropped, count"
scalar scenarioPRJP1.node[95].app 	dropPk:sum(packetBytes) 	3072
attr interpolationmode  none
attr source  dropPk
attr title  "packets dropped, sum(packetBytes)"
scalar scenarioPRJP1.node[95].app 	outOfOrderPk:count 	11
attr interpolationmode  none
attr source  outOfOrderPk
attr title  "packets received out of order, count"
scalar scenarioPRJP1.node[95].app 	outOfOrderPk:sum(packetBytes) 	5632
attr interpolationmode  none
attr source  outOfOrderPk
attr title  "packets received out of order, sum(packetBytes)"
scalar scenarioPRJP1.node[95].app 	rcvdPk:count 	99
attr interpolationmode  none
attr source  rcvdPk
attr title  "packets received, count"
scalar scenarioPRJP1.node[95].app 	rcvdPk:sum(packetBytes) 	50688
attr interpolationmode  none
attr source  rcvdPk
attr title  "packets received, sum(packetBytes)"
statistic scenarioPRJP1.node[95].app 	endToEndDelay:histogram
field count 99
field mean 1.4539359788373
field stddev 2.9239670386057
field sum 143.93966190489
field sqrsum 1047.1382110247
field min 0.00100312403
field max 15.616627431701
attr interpolationmode  none
attr source  messageAge(rcvdPk)
attr title  "delay, histogram"
attr unit  s
bin	-INF	0
bin	-7.8068090298055	0
bin	-6.7657674092941	0
bin	-5.7247257887827	0
bin	-4.6836841682713	0
bin	-3.6426425477599	0
bin	-2.6016009272485	0
bin	-1.5605593067371	0
bin	-0.5195176862257	63
bin	0.5215239342857	14
bin	1.5625655547971	6
bin	2.6036071753085	3
bin	3.6446487958199	3
bin	4.6856904163313	1
bin	5.7267320368427	1
bin	6.7677736573541	2
bin	7.8088152778655	1
bin	8.8498568983769	0
bin	9.8908985188883	3
bin	10.9319401394	1
bin	11.972981759911	0
bin	13.014023380423	0
bin	14.055065000934	0
bin	15.096106621445	1
bin	16.137148241957	0
bin	17.178189862468	0
bin	18.219231482979	0
bin	19.260273103491	0
bin	20.301314724002	0
bin	21.342356344514	0
bin	22.383397965025	0
bin	23.424439585537	0
scalar scenarioPRJP1.node[95].app 	sentPk:count 	2609
attr interpolationmode  none
attr source  sentPk
attr title  "packets sent, count"
scalar scenarioPRJP1.node[95].app 	sentPk:sum(packetBytes) 	1335808
attr interpolationmode  none
attr source  sentPk
attr title  "packets sent, sum(packetBytes)"
scalar scenarioPRJP1.node[95].udp 	droppedPkBadChecksum:count 	0
attr interpolationmode  none
attr title  "packets dropped (checksum error), count"
scalar scenarioPRJP1.node[95].udp 	droppedPkWrongPort:count 	0
attr interpolationmode  none
attr title  "packets dropped (wrong port), count"
scalar scenarioPRJP1.node[95].udp 	passedUpPk:count 	116
attr interpolationmode  none
attr title  "packets passed up, count"
scalar scenarioPRJP1.node[95].udp 	rcvdPk:count 	116
attr interpolationmode  none
attr source  rcvdPk
attr title  "packets received, count"
scalar scenarioPRJP1.node[95].udp 	rcvdPk:sum(packetBytes) 	60320
attr interpolationmode  none
attr source  rcvdPk
attr title  "packets received, sum(packetBytes)"
scalar scenarioPRJP1.node[95].udp 	sentPk:count 	2609
attr interpolationmode  none
attr source  sentPk
attr title  "packets sent, count"
scalar scenarioPRJP1.node[95].udp 	sentPk:sum(packetBytes) 	1356680
attr interpolationmode  none
attr source  sentPk
attr title  "packets sent, sum(packetBytes)"
scalar scenarioPRJP1.node[95].networkLayer.arp 	failedARPResolution:count 	110
attr title  "ARP failed resolutions, count"
scalar scenarioPRJP1.node[95].networkLayer.arp 	completedARPResolution:count 	1814
attr title  "ARP completed resolutions, count"
scalar scenarioPRJP1.node[95].networkLayer.arp 	initiatedARPResolution:count 	178
attr title  "ARP initiated resolutions, count"
scalar scenarioPRJP1.node[95].networkLayer.arp 	sentReply:count 	76
attr title  "ARP replies sent, count"
scalar scenarioPRJP1.node[95].networkLayer.arp 	sentReq:count 	437
attr title  "ARP request sent, count"
scalar scenarioPRJP1.node[95].mobility 	startTime 	9.7
scalar scenarioPRJP1.node[95].mobility 	totalTime 	940.2
scalar scenarioPRJP1.node[95].mobility 	stopTime 	950
scalar scenarioPRJP1.node[95].mobility 	minSpeed 	2.4754731823352e-13
scalar scenarioPRJP1.node[95].mobility 	maxSpeed 	19.769122905989
scalar scenarioPRJP1.node[95].mobility 	totalDistance 	8902.0966857466
scalar scenarioPRJP1.node[95].mobility 	totalCO2Emission 	2730.6618959622
scalar scenarioPRJP1.node[95].wlan.mgmt 	dataQueueLen:max 	86
attr interpolationmode  sample-hold
attr title  "data queue length, max"
scalar scenarioPRJP1.node[95].wlan.mgmt 	dataQueueLen:timeavg 	0.37245595818655
attr interpolationmode  sample-hold
attr title  "data queue length, timeavg"
scalar scenarioPRJP1.node[95].wlan.mgmt 	dropPkByQueue:count 	0
attr interpolationmode  none
attr source  dropPkByQueue
attr title  "packets dropped by queue, count"
scalar scenarioPRJP1.node[95].wlan.mgmt 	dropPkByQueue:sum(packetBytes) 	0
attr interpolationmode  none
attr source  dropPkByQueue
attr title  "packets dropped by queue, sum(packetBytes)"
scalar scenarioPRJP1.node[95].wlan.mac 	"number of received packets" 	9060
scalar scenarioPRJP1.node[95].wlan.mac 	"number of collisions" 	69237
scalar scenarioPRJP1.node[95].wlan.mac 	"number of internal collisions" 	0
scalar scenarioPRJP1.node[95].wlan.mac 	"number of retry for AC 0" 	25460
scalar scenarioPRJP1.node[95].wlan.mac 	"number of retry for AC 1" 	0
scalar scenarioPRJP1.node[95].wlan.mac 	"number of retry for AC 2" 	0
scalar scenarioPRJP1.node[95].wlan.mac 	"number of retry for AC 3" 	0
scalar scenarioPRJP1.node[95].wlan.mac 	"sent and received bits" 	17259776
scalar scenarioPRJP1.node[95].wlan.mac 	"sent packet within AC 0" 	3508
scalar scenarioPRJP1.node[95].wlan.mac 	"sent packet within AC 1" 	0
scalar scenarioPRJP1.node[95].wlan.mac 	"sent packet within AC 2" 	0
scalar scenarioPRJP1.node[95].wlan.mac 	"sent packet within AC 3" 	0
scalar scenarioPRJP1.node[95].wlan.mac 	"sent in TXOP " 	0
scalar scenarioPRJP1.node[95].wlan.mac 	"sentWithoutRetry AC 0" 	3042
scalar scenarioPRJP1.node[95].wlan.mac 	"sentWithoutRetry AC 1" 	0
scalar scenarioPRJP1.node[95].wlan.mac 	"sentWithoutRetry AC 2" 	0
scalar scenarioPRJP1.node[95].wlan.mac 	"sentWithoutRetry AC 3" 	0
scalar scenarioPRJP1.node[95].wlan.mac 	"numGivenUp AC 0" 	4053
scalar scenarioPRJP1.node[95].wlan.mac 	"numGivenUp AC 1" 	0
scalar scenarioPRJP1.node[95].wlan.mac 	"numGivenUp AC 2" 	0
scalar scenarioPRJP1.node[95].wlan.mac 	"numGivenUp AC 3" 	0
scalar scenarioPRJP1.node[95].wlan.mac 	"numDropped AC 0" 	365
scalar scenarioPRJP1.node[95].wlan.mac 	"numDropped AC 1" 	0
scalar scenarioPRJP1.node[95].wlan.mac 	"numDropped AC 2" 	0
scalar scenarioPRJP1.node[95].wlan.mac 	"numDropped AC 3" 	0
scalar scenarioPRJP1.node[95].wlan.mac 	rcvdPkFromLL:count 	285274
attr interpolationmode  none
attr source  packetReceivedFromLower
attr title  "packets received from lower layer, count"
scalar scenarioPRJP1.node[95].wlan.mac 	rcvdPkFromLL:sum(packetBytes) 	72691700
attr interpolationmode  none
attr source  packetReceivedFromLower
attr title  "packets received from lower layer, sum(packetBytes)"
scalar scenarioPRJP1.node[95].wlan.mac 	sentDownPk:count 	56339
attr interpolationmode  none
attr source  packetSentToLower
attr title  "packets sent to lower layer, count"
scalar scenarioPRJP1.node[95].wlan.mac 	sentDownPk:sum(packetBytes) 	14251972
attr interpolationmode  none
attr source  packetSentToLower
attr title  "packets sent to lower layer, sum(packetBytes)"
scalar scenarioPRJP1.node[95].wlan.mac 	rcvdPkFromHL:count 	22185
attr interpolationmode  none
attr source  packetReceivedFromUpper
attr title  "packets received from higher layer, count"
scalar scenarioPRJP1.node[95].wlan.mac 	rcvdPkFromHL:sum(packetBytes) 	3869132
attr interpolationmode  none
attr source  packetReceivedFromUpper
attr title  "packets received from higher layer, sum(packetBytes)"
scalar scenarioPRJP1.node[95].wlan.mac 	passedUpPk:count 	48991
attr interpolationmode  none
attr source  packetSentToUpper
attr title  "packets passed to higher layer, count"
scalar scenarioPRJP1.node[95].wlan.mac 	passedUpPk:sum(packetBytes) 	4693216
attr interpolationmode  none
attr source  packetSentToUpper
attr title  "packets passed to higher layer, sum(packetBytes)"
statistic scenarioPRJP1.node[95].wlan.radio 	radioChannel:histogram
field count 1
field mean 3
field stddev -nan
field sum 3
field sqrsum 9
field min 3
field max 3
attr interpolationmode  sample-hold
attr source  radioChannelChanged
attr title  "Radio channel, histogram"
bin	-INF	0
bin	2	0
bin	3	1
bin	4	0
scalar scenarioPRJP1.node[95].wlan.radio 	transmissionState:count 	225356
attr interpolationmode  sample-hold
attr source  transmissionStateChanged
attr title  "Radio transmission state, count"
scalar scenarioPRJP1.node[95].wlan.radio 	receptionState:count 	717059
attr interpolationmode  sample-hold
attr source  receptionStateChanged
attr title  "Radio reception state, count"
scalar scenarioPRJP1.node[95].wlan.radio 	radioMode:count 	112680
attr interpolationmode  sample-hold
attr source  radioModeChanged
attr title  "Radio mode, count"
statistic scenarioPRJP1.node[95].wlan.radio 	symbolErrorRate:histogram
field count 0
field mean -nan
field stddev -nan
field sum 0
field sqrsum 0
field min -nan
field max -nan
attr source  symbolErrorRate
attr title  "Symbol error rate, histogram"
bin	-INF	0
bin	-0.5	0
bin	-0.46666666666667	0
bin	-0.43333333333333	0
bin	-0.4	0
bin	-0.36666666666667	0
bin	-0.33333333333333	0
bin	-0.3	0
bin	-0.26666666666667	0
bin	-0.23333333333333	0
bin	-0.2	0
bin	-0.16666666666667	0
bin	-0.13333333333333	0
bin	-0.1	0
bin	-0.066666666666667	0
bin	-0.033333333333333	0
bin	0	0
bin	0.033333333333333	0
bin	0.066666666666667	0
bin	0.1	0
bin	0.13333333333333	0
bin	0.16666666666667	0
bin	0.2	0
bin	0.23333333333333	0
bin	0.26666666666667	0
bin	0.3	0
bin	0.33333333333333	0
bin	0.36666666666667	0
bin	0.4	0
bin	0.43333333333333	0
bin	0.46666666666667	0
bin	0.5	0
statistic scenarioPRJP1.node[95].wlan.radio 	bitErrorRate:histogram
field count 0
field mean -nan
field stddev -nan
field sum 0
field sqrsum 0
field min -nan
field max -nan
attr source  bitErrorRate
attr title  "Bit error rate, histogram"
bin	-INF	0
bin	-0.5	0
bin	-0.46666666666667	0
bin	-0.43333333333333	0
bin	-0.4	0
bin	-0.36666666666667	0
bin	-0.33333333333333	0
bin	-0.3	0
bin	-0.26666666666667	0
bin	-0.23333333333333	0
bin	-0.2	0
bin	-0.16666666666667	0
bin	-0.13333333333333	0
bin	-0.1	0
bin	-0.066666666666667	0
bin	-0.033333333333333	0
bin	0	0
bin	0.033333333333333	0
bin	0.066666666666667	0
bin	0.1	0
bin	0.13333333333333	0
bin	0.16666666666667	0
bin	0.2	0
bin	0.23333333333333	0
bin	0.26666666666667	0
bin	0.3	0
bin	0.33333333333333	0
bin	0.36666666666667	0
bin	0.4	0
bin	0.43333333333333	0
bin	0.46666666666667	0
bin	0.5	0
statistic scenarioPRJP1.node[95].wlan.radio 	packetErrorRate:histogram
field count 285274
field mean 0.22549548186635
field stddev 0.40852155226139
field sum 64327.998093942
field sqrsum 62114.843577792
field min 0
field max 1
attr source  packetErrorRate
attr title  "Packet error rate, histogram"
bin	-INF	73889
bin	-1.0541567618816e-10	0
bin	-9.1360252696404e-11	0
bin	-7.730482920465e-11	0
bin	-6.3249405712895e-11	0
bin	-4.9193982221141e-11	0
bin	-3.5138558729386e-11	0
bin	-2.1083135237632e-11	0
bin	-7.0277117458772e-12	159217
bin	7.0277117458772e-12	1697
bin	2.1083135237632e-11	768
bin	3.5138558729386e-11	553
bin	4.9193982221141e-11	366
bin	6.3249405712895e-11	332
bin	7.730482920465e-11	260
bin	9.1360252696404e-11	236
bin	1.0541567618816e-10	191
bin	1.1947109967991e-10	178
bin	1.3352652317167e-10	154
bin	1.4758194666342e-10	153
bin	1.6163737015518e-10	154
bin	1.7569279364693e-10	113
bin	1.8974821713869e-10	116
bin	2.0380364063044e-10	135
bin	2.1785906412219e-10	89
bin	2.3191448761395e-10	112
bin	2.459699111057e-10	96
bin	2.6002533459746e-10	107
bin	2.7408075808921e-10	116
bin	2.8813618158097e-10	83
bin	3.0219160507272e-10	72
bin	3.1624702856448e-10	46087
statistic scenarioPRJP1.node[95].wlan.radio 	minSNIR:histogram
field count 285274
field mean 3248.6505502427
field stddev 34230.060817671
field sum 926755537.06995
field sqrsum 3.3726424130451e+14
field min 0.00017051266171666
field max 1271877.6022039
attr source  minSNIR
attr title  "Min SNIR, histogram"
bin	-INF	0
bin	-3469.6149392755	0
bin	-3006.2653570014	0
bin	-2542.9157747273	0
bin	-2079.5661924532	0
bin	-1616.2166101791	0
bin	-1152.8670279051	0
bin	-689.51744563098	0
bin	-226.16786335689	227382
bin	237.18171891719	22504
bin	700.53130119128	7334
bin	1163.8808834654	3703
bin	1627.2304657394	2424
bin	2090.5800480135	1798
bin	2553.9296302876	1380
bin	3017.2792125617	1180
bin	3480.6287948358	1093
bin	3943.9783771099	846
bin	4407.327959384	796
bin	4870.677541658	653
bin	5334.0271239321	676
bin	5797.3767062062	519
bin	6260.7262884803	460
bin	6724.0758707544	485
bin	7187.4254530285	371
bin	7650.7750353026	611
bin	8114.1246175766	385
bin	8577.4741998507	408
bin	9040.8237821248	332
bin	9504.1733643989	231
bin	9967.522946673	325
bin	10430.872528947	9378
scalar scenarioPRJP1.node[95].lo0.lo 	droppedPkBitError:count 	0
attr interpolationmode  none
attr source  dropPkBitError
attr title  "packets dropped/bit error, count"
scalar scenarioPRJP1.node[95].lo0.lo 	droppedPkBitError:sum(packetBytes) 	0
attr interpolationmode  none
attr source  dropPkBitError
attr title  "packets dropped/bit error, sum(packetBytes)"
scalar scenarioPRJP1.node[95].lo0.lo 	rcvdPkFromHL:count 	116
attr interpolationmode  none
attr source  packetReceivedFromUpper
attr title  "packets received from higher layer, count"
scalar scenarioPRJP1.node[95].lo0.lo 	rcvdPkFromHL:sum(packetBytes) 	60320
attr interpolationmode  none
attr source  packetReceivedFromUpper
attr title  "packets received from higher layer, sum(packetBytes)"
scalar scenarioPRJP1.node[95].lo0.lo 	passedUpPk:count 	116
attr interpolationmode  none
attr source  packetSentToUpper
attr title  "packets passed to higher layer, count"
scalar scenarioPRJP1.node[95].lo0.lo 	passedUpPk:sum(packetBytes) 	60320
attr interpolationmode  none
attr source  packetSentToUpper
attr title  "packets passed to higher layer, sum(packetBytes)"
