version 2
run DSRUU-FS-100n-0-20150714-09:55:34-11752
attr configname DSRUU-FS-100n
attr datetime 20150714-09:55:34
attr experiment DSRUU-FS-100n
attr inifile omnetpp.ini
attr iterationvars ""
attr iterationvars2 $repetition=0
attr measurement ""
attr network Prj_Part1_propag.scenarioPRJP1
attr processid 11752
attr repetition 0
attr replication #0
attr resultdir results
attr runnumber 0
attr seedset 0

scalar scenarioPRJP1.node[97].app 	"Total sent" 	368
scalar scenarioPRJP1.node[97].app 	"Total received" 	14
scalar scenarioPRJP1.node[97].app 	"Total deleted" 	0
scalar scenarioPRJP1.node[97].app 	dropPk:count 	0
attr interpolationmode  none
attr source  dropPk
attr title  "packets dropped, count"
scalar scenarioPRJP1.node[97].app 	dropPk:sum(packetBytes) 	0
attr interpolationmode  none
attr source  dropPk
attr title  "packets dropped, sum(packetBytes)"
scalar scenarioPRJP1.node[97].app 	outOfOrderPk:count 	0
attr interpolationmode  none
attr source  outOfOrderPk
attr title  "packets received out of order, count"
scalar scenarioPRJP1.node[97].app 	outOfOrderPk:sum(packetBytes) 	0
attr interpolationmode  none
attr source  outOfOrderPk
attr title  "packets received out of order, sum(packetBytes)"
scalar scenarioPRJP1.node[97].app 	rcvdPk:count 	14
attr interpolationmode  none
attr source  rcvdPk
attr title  "packets received, count"
scalar scenarioPRJP1.node[97].app 	rcvdPk:sum(packetBytes) 	7168
attr interpolationmode  none
attr source  rcvdPk
attr title  "packets received, sum(packetBytes)"
statistic scenarioPRJP1.node[97].app 	endToEndDelay:histogram
field count 14
field mean 1.9575593699485
field stddev 3.383942545166
field sum 27.405831179279
field sqrsum 202.51241455302
field min 0.001120062849
field max 12.456419297241
attr interpolationmode  none
attr source  messageAge(rcvdPk)
attr title  "delay, histogram"
attr unit  s
bin	-INF	0
bin	-6.226529554347	0
bin	-5.3961762720542	0
bin	-4.5658229897614	0
bin	-3.7354697074686	0
bin	-2.9051164251758	0
bin	-2.074763142883	0
bin	-1.2444098605902	0
bin	-0.4140565782974	6
bin	0.4162967039954	3
bin	1.2466499862882	2
bin	2.077003268581	0
bin	2.9073565508738	0
bin	3.7377098331666	1
bin	4.5680631154594	1
bin	5.3984163977522	0
bin	6.228769680045	0
bin	7.0591229623378	0
bin	7.8894762446306	0
bin	8.7198295269234	0
bin	9.5501828092162	0
bin	10.380536091509	0
bin	11.210889373802	0
bin	12.041242656095	1
bin	12.871595938387	0
bin	13.70194922068	0
bin	14.532302502973	0
bin	15.362655785266	0
bin	16.193009067559	0
bin	17.023362349851	0
bin	17.853715632144	0
bin	18.684068914437	0
scalar scenarioPRJP1.node[97].app 	sentPk:count 	368
attr interpolationmode  none
attr source  sentPk
attr title  "packets sent, count"
scalar scenarioPRJP1.node[97].app 	sentPk:sum(packetBytes) 	188416
attr interpolationmode  none
attr source  sentPk
attr title  "packets sent, sum(packetBytes)"
scalar scenarioPRJP1.node[97].udp 	droppedPkBadChecksum:count 	0
attr interpolationmode  none
attr title  "packets dropped (checksum error), count"
scalar scenarioPRJP1.node[97].udp 	droppedPkWrongPort:count 	0
attr interpolationmode  none
attr title  "packets dropped (wrong port), count"
scalar scenarioPRJP1.node[97].udp 	passedUpPk:count 	14
attr interpolationmode  none
attr title  "packets passed up, count"
scalar scenarioPRJP1.node[97].udp 	rcvdPk:count 	14
attr interpolationmode  none
attr source  rcvdPk
attr title  "packets received, count"
scalar scenarioPRJP1.node[97].udp 	rcvdPk:sum(packetBytes) 	7280
attr interpolationmode  none
attr source  rcvdPk
attr title  "packets received, sum(packetBytes)"
scalar scenarioPRJP1.node[97].udp 	sentPk:count 	368
attr interpolationmode  none
attr source  sentPk
attr title  "packets sent, count"
scalar scenarioPRJP1.node[97].udp 	sentPk:sum(packetBytes) 	191360
attr interpolationmode  none
attr source  sentPk
attr title  "packets sent, sum(packetBytes)"
scalar scenarioPRJP1.node[97].networkLayer.arp 	failedARPResolution:count 	8
attr title  "ARP failed resolutions, count"
scalar scenarioPRJP1.node[97].networkLayer.arp 	completedARPResolution:count 	118
attr title  "ARP completed resolutions, count"
scalar scenarioPRJP1.node[97].networkLayer.arp 	initiatedARPResolution:count 	25
attr title  "ARP initiated resolutions, count"
scalar scenarioPRJP1.node[97].networkLayer.arp 	sentReply:count 	7
attr title  "ARP replies sent, count"
scalar scenarioPRJP1.node[97].networkLayer.arp 	sentReq:count 	57
attr title  "ARP request sent, count"
scalar scenarioPRJP1.node[97].mobility 	startTime 	9.8
scalar scenarioPRJP1.node[97].mobility 	totalTime 	150.3
scalar scenarioPRJP1.node[97].mobility 	stopTime 	160.2
scalar scenarioPRJP1.node[97].mobility 	minSpeed 	2.4759033408305e-13
scalar scenarioPRJP1.node[97].mobility 	maxSpeed 	17.921962103964
scalar scenarioPRJP1.node[97].mobility 	totalDistance 	1483.893522298
scalar scenarioPRJP1.node[97].mobility 	totalCO2Emission 	444.57379080553
scalar scenarioPRJP1.node[97].wlan.mgmt 	dataQueueLen:max 	3
attr interpolationmode  sample-hold
attr title  "data queue length, max"
scalar scenarioPRJP1.node[97].wlan.mgmt 	dataQueueLen:timeavg 	0
attr interpolationmode  sample-hold
attr title  "data queue length, timeavg"
scalar scenarioPRJP1.node[97].wlan.mgmt 	dropPkByQueue:count 	0
attr interpolationmode  none
attr source  dropPkByQueue
attr title  "packets dropped by queue, count"
scalar scenarioPRJP1.node[97].wlan.mgmt 	dropPkByQueue:sum(packetBytes) 	0
attr interpolationmode  none
attr source  dropPkByQueue
attr title  "packets dropped by queue, sum(packetBytes)"
scalar scenarioPRJP1.node[97].wlan.mac 	"number of received packets" 	1438
scalar scenarioPRJP1.node[97].wlan.mac 	"number of collisions" 	20463
scalar scenarioPRJP1.node[97].wlan.mac 	"number of internal collisions" 	0
scalar scenarioPRJP1.node[97].wlan.mac 	"number of retry for AC 0" 	4522
scalar scenarioPRJP1.node[97].wlan.mac 	"number of retry for AC 1" 	0
scalar scenarioPRJP1.node[97].wlan.mac 	"number of retry for AC 2" 	0
scalar scenarioPRJP1.node[97].wlan.mac 	"number of retry for AC 3" 	0
scalar scenarioPRJP1.node[97].wlan.mac 	"sent and received bits" 	4431104
scalar scenarioPRJP1.node[97].wlan.mac 	"sent packet within AC 0" 	813
scalar scenarioPRJP1.node[97].wlan.mac 	"sent packet within AC 1" 	0
scalar scenarioPRJP1.node[97].wlan.mac 	"sent packet within AC 2" 	0
scalar scenarioPRJP1.node[97].wlan.mac 	"sent packet within AC 3" 	0
scalar scenarioPRJP1.node[97].wlan.mac 	"sent in TXOP " 	0
scalar scenarioPRJP1.node[97].wlan.mac 	"sentWithoutRetry AC 0" 	701
scalar scenarioPRJP1.node[97].wlan.mac 	"sentWithoutRetry AC 1" 	0
scalar scenarioPRJP1.node[97].wlan.mac 	"sentWithoutRetry AC 2" 	0
scalar scenarioPRJP1.node[97].wlan.mac 	"sentWithoutRetry AC 3" 	0
scalar scenarioPRJP1.node[97].wlan.mac 	"numGivenUp AC 0" 	712
scalar scenarioPRJP1.node[97].wlan.mac 	"numGivenUp AC 1" 	0
scalar scenarioPRJP1.node[97].wlan.mac 	"numGivenUp AC 2" 	0
scalar scenarioPRJP1.node[97].wlan.mac 	"numGivenUp AC 3" 	0
scalar scenarioPRJP1.node[97].wlan.mac 	"numDropped AC 0" 	0
scalar scenarioPRJP1.node[97].wlan.mac 	"numDropped AC 1" 	0
scalar scenarioPRJP1.node[97].wlan.mac 	"numDropped AC 2" 	0
scalar scenarioPRJP1.node[97].wlan.mac 	"numDropped AC 3" 	0
scalar scenarioPRJP1.node[97].wlan.mac 	rcvdPkFromLL:count 	68877
attr interpolationmode  none
attr source  packetReceivedFromLower
attr title  "packets received from lower layer, count"
scalar scenarioPRJP1.node[97].wlan.mac 	rcvdPkFromLL:sum(packetBytes) 	13161412
attr interpolationmode  none
attr source  packetReceivedFromLower
attr title  "packets received from lower layer, sum(packetBytes)"
scalar scenarioPRJP1.node[97].wlan.mac 	sentDownPk:count 	12148
attr interpolationmode  none
attr source  packetSentToLower
attr title  "packets sent to lower layer, count"
scalar scenarioPRJP1.node[97].wlan.mac 	sentDownPk:sum(packetBytes) 	2422964
attr interpolationmode  none
attr source  packetSentToLower
attr title  "packets sent to lower layer, sum(packetBytes)"
scalar scenarioPRJP1.node[97].wlan.mac 	rcvdPkFromHL:count 	6188
attr interpolationmode  none
attr source  packetReceivedFromUpper
attr title  "packets received from higher layer, count"
scalar scenarioPRJP1.node[97].wlan.mac 	rcvdPkFromHL:sum(packetBytes) 	803232
attr interpolationmode  none
attr source  packetReceivedFromUpper
attr title  "packets received from higher layer, sum(packetBytes)"
scalar scenarioPRJP1.node[97].wlan.mac 	passedUpPk:count 	18485
attr interpolationmode  none
attr source  packetSentToUpper
attr title  "packets passed to higher layer, count"
scalar scenarioPRJP1.node[97].wlan.mac 	passedUpPk:sum(packetBytes) 	1529276
attr interpolationmode  none
attr source  packetSentToUpper
attr title  "packets passed to higher layer, sum(packetBytes)"
statistic scenarioPRJP1.node[97].wlan.radio 	radioChannel:histogram
field count 1
field mean 3
field stddev -nan
field sum 3
field sqrsum 9
field min 3
field max 3
attr interpolationmode  sample-hold
attr source  radioChannelChanged
attr title  "Radio channel, histogram"
bin	-INF	0
bin	2	0
bin	3	1
bin	4	0
scalar scenarioPRJP1.node[97].wlan.radio 	transmissionState:count 	48592
attr interpolationmode  sample-hold
attr source  transmissionStateChanged
attr title  "Radio transmission state, count"
scalar scenarioPRJP1.node[97].wlan.radio 	receptionState:count 	166355
attr interpolationmode  sample-hold
attr source  receptionStateChanged
attr title  "Radio reception state, count"
scalar scenarioPRJP1.node[97].wlan.radio 	radioMode:count 	24298
attr interpolationmode  sample-hold
attr source  radioModeChanged
attr title  "Radio mode, count"
statistic scenarioPRJP1.node[97].wlan.radio 	symbolErrorRate:histogram
field count 0
field mean -nan
field stddev -nan
field sum 0
field sqrsum 0
field min -nan
field max -nan
attr source  symbolErrorRate
attr title  "Symbol error rate, histogram"
bin	-INF	0
bin	-0.5	0
bin	-0.46666666666667	0
bin	-0.43333333333333	0
bin	-0.4	0
bin	-0.36666666666667	0
bin	-0.33333333333333	0
bin	-0.3	0
bin	-0.26666666666667	0
bin	-0.23333333333333	0
bin	-0.2	0
bin	-0.16666666666667	0
bin	-0.13333333333333	0
bin	-0.1	0
bin	-0.066666666666667	0
bin	-0.033333333333333	0
bin	0	0
bin	0.033333333333333	0
bin	0.066666666666667	0
bin	0.1	0
bin	0.13333333333333	0
bin	0.16666666666667	0
bin	0.2	0
bin	0.23333333333333	0
bin	0.26666666666667	0
bin	0.3	0
bin	0.33333333333333	0
bin	0.36666666666667	0
bin	0.4	0
bin	0.43333333333333	0
bin	0.46666666666667	0
bin	0.5	0
statistic scenarioPRJP1.node[97].wlan.radio 	bitErrorRate:histogram
field count 0
field mean -nan
field stddev -nan
field sum 0
field sqrsum 0
field min -nan
field max -nan
attr source  bitErrorRate
attr title  "Bit error rate, histogram"
bin	-INF	0
bin	-0.5	0
bin	-0.46666666666667	0
bin	-0.43333333333333	0
bin	-0.4	0
bin	-0.36666666666667	0
bin	-0.33333333333333	0
bin	-0.3	0
bin	-0.26666666666667	0
bin	-0.23333333333333	0
bin	-0.2	0
bin	-0.16666666666667	0
bin	-0.13333333333333	0
bin	-0.1	0
bin	-0.066666666666667	0
bin	-0.033333333333333	0
bin	0	0
bin	0.033333333333333	0
bin	0.066666666666667	0
bin	0.1	0
bin	0.13333333333333	0
bin	0.16666666666667	0
bin	0.2	0
bin	0.23333333333333	0
bin	0.26666666666667	0
bin	0.3	0
bin	0.33333333333333	0
bin	0.36666666666667	0
bin	0.4	0
bin	0.43333333333333	0
bin	0.46666666666667	0
bin	0.5	0
statistic scenarioPRJP1.node[97].wlan.radio 	packetErrorRate:histogram
field count 68877
field mean 0.26249160584077
field stddev 0.42852470583892
field sum 18079.634335495
field sqrsum 17393.687927712
field min 0
field max 1
attr source  packetErrorRate
attr title  "Packet error rate, histogram"
bin	-INF	0
bin	-0.5	0
bin	-0.43333333333333	0
bin	-0.36666666666667	0
bin	-0.3	0
bin	-0.23333333333333	0
bin	-0.16666666666667	0
bin	-0.1	0
bin	-0.033333333333333	47986
bin	0.033333333333333	1139
bin	0.1	576
bin	0.16666666666667	346
bin	0.23333333333333	300
bin	0.3	266
bin	0.36666666666667	221
bin	0.43333333333333	209
bin	0.5	165
bin	0.56666666666667	172
bin	0.63333333333333	178
bin	0.7	180
bin	0.76666666666667	219
bin	0.83333333333333	246
bin	0.9	330
bin	0.96666666666667	16344
bin	1.0333333333333	0
bin	1.1	0
bin	1.1666666666667	0
bin	1.2333333333333	0
bin	1.3	0
bin	1.3666666666667	0
bin	1.4333333333333	0
bin	1.5	0
statistic scenarioPRJP1.node[97].wlan.radio 	minSNIR:histogram
field count 68877
field mean 585.51278703455
field stddev 6221.0118828086
field sum 40328364.232579
field sqrsum 2689182080698.6
field min 0.00016852399000771
field max 752336.16607414
attr source  minSNIR
attr title  "Min SNIR, histogram"
bin	-INF	0
bin	-45.433992997788	0
bin	-39.20333896858	0
bin	-32.972684939373	0
bin	-26.742030910165	0
bin	-20.511376880957	0
bin	-14.28072285175	0
bin	-8.0500688225421	0
bin	-1.8194147933344	26080
bin	4.4112392358733	12643
bin	10.641893265081	4759
bin	16.872547294289	2699
bin	23.103201323496	1755
bin	29.333855352704	1210
bin	35.564509381912	887
bin	41.795163411119	691
bin	48.025817440327	570
bin	54.256471469535	504
bin	60.487125498742	451
bin	66.71777952795	365
bin	72.948433557158	283
bin	79.179087586365	262
bin	85.409741615573	265
bin	91.640395644781	244
bin	97.871049673988	211
bin	104.1017037032	209
bin	110.3323577324	177
bin	116.56301176161	190
bin	122.79366579082	169
bin	129.02431982003	175
bin	135.25497384923	136
bin	141.48562787844	13942
scalar scenarioPRJP1.node[97].lo0.lo 	droppedPkBitError:count 	0
attr interpolationmode  none
attr source  dropPkBitError
attr title  "packets dropped/bit error, count"
scalar scenarioPRJP1.node[97].lo0.lo 	droppedPkBitError:sum(packetBytes) 	0
attr interpolationmode  none
attr source  dropPkBitError
attr title  "packets dropped/bit error, sum(packetBytes)"
scalar scenarioPRJP1.node[97].lo0.lo 	rcvdPkFromHL:count 	14
attr interpolationmode  none
attr source  packetReceivedFromUpper
attr title  "packets received from higher layer, count"
scalar scenarioPRJP1.node[97].lo0.lo 	rcvdPkFromHL:sum(packetBytes) 	7280
attr interpolationmode  none
attr source  packetReceivedFromUpper
attr title  "packets received from higher layer, sum(packetBytes)"
scalar scenarioPRJP1.node[97].lo0.lo 	passedUpPk:count 	14
attr interpolationmode  none
attr source  packetSentToUpper
attr title  "packets passed to higher layer, count"
scalar scenarioPRJP1.node[97].lo0.lo 	passedUpPk:sum(packetBytes) 	7280
attr interpolationmode  none
attr source  packetSentToUpper
attr title  "packets passed to higher layer, sum(packetBytes)"
scalar scenarioPRJP1.node[54].app 	"Total sent" 	370
scalar scenarioPRJP1.node[54].app 	"Total received" 	12
scalar scenarioPRJP1.node[54].app 	"Total deleted" 	0
scalar scenarioPRJP1.node[54].app 	dropPk:count 	0
attr interpolationmode  none
attr source  dropPk
attr title  "packets dropped, count"
scalar scenarioPRJP1.node[54].app 	dropPk:sum(packetBytes) 	0
attr interpolationmode  none
attr source  dropPk
attr title  "packets dropped, sum(packetBytes)"
scalar scenarioPRJP1.node[54].app 	outOfOrderPk:count 	0
attr interpolationmode  none
attr source  outOfOrderPk
attr title  "packets received out of order, count"
scalar scenarioPRJP1.node[54].app 	outOfOrderPk:sum(packetBytes) 	0
attr interpolationmode  none
attr source  outOfOrderPk
attr title  "packets received out of order, sum(packetBytes)"
scalar scenarioPRJP1.node[54].app 	rcvdPk:count 	12
attr interpolationmode  none
attr source  rcvdPk
attr title  "packets received, count"
scalar scenarioPRJP1.node[54].app 	rcvdPk:sum(packetBytes) 	6144
attr interpolationmode  none
attr source  rcvdPk
attr title  "packets received, sum(packetBytes)"
statistic scenarioPRJP1.node[54].app 	endToEndDelay:histogram
field count 12
field mean 2.1773185990552
field stddev 5.3390698275703
field sum 26.127823188662
field sqrsum 370.45092824189
field min 0.000977281407
field max 18.089685716193
attr interpolationmode  none
attr source  messageAge(rcvdPk)
attr title  "delay, histogram"
attr unit  s
bin	-INF	0
bin	-9.043376935986	0
bin	-7.8374630403336	0
bin	-6.6315491446812	0
bin	-5.4256352490288	0
bin	-4.2197213533764	0
bin	-3.013807457724	0
bin	-1.8078935620716	0
bin	-0.6019796664192	9
bin	0.6039342292332	1
bin	1.8098481248856	0
bin	3.015762020538	0
bin	4.2216759161904	0
bin	5.4275898118428	1
bin	6.6335037074952	0
bin	7.8394176031476	0
bin	9.0453314988	0
bin	10.251245394452	0
bin	11.457159290105	0
bin	12.663073185757	0
bin	13.86898708141	0
bin	15.074900977062	0
bin	16.280814872714	0
bin	17.486728768367	1
bin	18.692642664019	0
bin	19.898556559672	0
bin	21.104470455324	0
bin	22.310384350976	0
bin	23.516298246629	0
bin	24.722212142281	0
bin	25.928126037934	0
bin	27.134039933586	0
scalar scenarioPRJP1.node[54].app 	sentPk:count 	370
attr interpolationmode  none
attr source  sentPk
attr title  "packets sent, count"
scalar scenarioPRJP1.node[54].app 	sentPk:sum(packetBytes) 	189440
attr interpolationmode  none
attr source  sentPk
attr title  "packets sent, sum(packetBytes)"
scalar scenarioPRJP1.node[54].udp 	droppedPkBadChecksum:count 	0
attr interpolationmode  none
attr title  "packets dropped (checksum error), count"
scalar scenarioPRJP1.node[54].udp 	droppedPkWrongPort:count 	0
attr interpolationmode  none
attr title  "packets dropped (wrong port), count"
scalar scenarioPRJP1.node[54].udp 	passedUpPk:count 	12
attr interpolationmode  none
attr title  "packets passed up, count"
scalar scenarioPRJP1.node[54].udp 	rcvdPk:count 	12
attr interpolationmode  none
attr source  rcvdPk
attr title  "packets received, count"
scalar scenarioPRJP1.node[54].udp 	rcvdPk:sum(packetBytes) 	6240
attr interpolationmode  none
attr source  rcvdPk
attr title  "packets received, sum(packetBytes)"
scalar scenarioPRJP1.node[54].udp 	sentPk:count 	370
attr interpolationmode  none
attr source  sentPk
attr title  "packets sent, count"
scalar scenarioPRJP1.node[54].udp 	sentPk:sum(packetBytes) 	192400
attr interpolationmode  none
attr source  sentPk
attr title  "packets sent, sum(packetBytes)"
scalar scenarioPRJP1.node[54].networkLayer.arp 	failedARPResolution:count 	2
attr title  "ARP failed resolutions, count"
scalar scenarioPRJP1.node[54].networkLayer.arp 	completedARPResolution:count 	131
attr title  "ARP completed resolutions, count"
scalar scenarioPRJP1.node[54].networkLayer.arp 	initiatedARPResolution:count 	14
attr title  "ARP initiated resolutions, count"
scalar scenarioPRJP1.node[54].networkLayer.arp 	sentReply:count 	13
attr title  "ARP replies sent, count"
scalar scenarioPRJP1.node[54].networkLayer.arp 	sentReq:count 	26
attr title  "ARP request sent, count"
scalar scenarioPRJP1.node[54].mobility 	startTime 	4.9
scalar scenarioPRJP1.node[54].mobility 	totalTime 	155.3
scalar scenarioPRJP1.node[54].mobility 	stopTime 	160.3
scalar scenarioPRJP1.node[54].mobility 	minSpeed 	2.4759654920312e-13
scalar scenarioPRJP1.node[54].mobility 	maxSpeed 	17.094594715516
scalar scenarioPRJP1.node[54].mobility 	totalDistance 	1447.9638329428
scalar scenarioPRJP1.node[54].mobility 	totalCO2Emission 	406.0452796407
scalar scenarioPRJP1.node[54].wlan.mgmt 	dataQueueLen:max 	17
attr interpolationmode  sample-hold
attr title  "data queue length, max"
scalar scenarioPRJP1.node[54].wlan.mgmt 	dataQueueLen:timeavg 	0.019185545821274
attr interpolationmode  sample-hold
attr title  "data queue length, timeavg"
scalar scenarioPRJP1.node[54].wlan.mgmt 	dropPkByQueue:count 	0
attr interpolationmode  none
attr source  dropPkByQueue
attr title  "packets dropped by queue, count"
scalar scenarioPRJP1.node[54].wlan.mgmt 	dropPkByQueue:sum(packetBytes) 	0
attr interpolationmode  none
attr source  dropPkByQueue
attr title  "packets dropped by queue, sum(packetBytes)"
scalar scenarioPRJP1.node[54].wlan.mac 	"number of received packets" 	1457
scalar scenarioPRJP1.node[54].wlan.mac 	"number of collisions" 	18322
scalar scenarioPRJP1.node[54].wlan.mac 	"number of internal collisions" 	0
scalar scenarioPRJP1.node[54].wlan.mac 	"number of retry for AC 0" 	3858
scalar scenarioPRJP1.node[54].wlan.mac 	"number of retry for AC 1" 	0
scalar scenarioPRJP1.node[54].wlan.mac 	"number of retry for AC 2" 	0
scalar scenarioPRJP1.node[54].wlan.mac 	"number of retry for AC 3" 	0
scalar scenarioPRJP1.node[54].wlan.mac 	"sent and received bits" 	4271104
scalar scenarioPRJP1.node[54].wlan.mac 	"sent packet within AC 0" 	747
scalar scenarioPRJP1.node[54].wlan.mac 	"sent packet within AC 1" 	0
scalar scenarioPRJP1.node[54].wlan.mac 	"sent packet within AC 2" 	0
scalar scenarioPRJP1.node[54].wlan.mac 	"sent packet within AC 3" 	0
scalar scenarioPRJP1.node[54].wlan.mac 	"sent in TXOP " 	0
scalar scenarioPRJP1.node[54].wlan.mac 	"sentWithoutRetry AC 0" 	661
scalar scenarioPRJP1.node[54].wlan.mac 	"sentWithoutRetry AC 1" 	0
scalar scenarioPRJP1.node[54].wlan.mac 	"sentWithoutRetry AC 2" 	0
scalar scenarioPRJP1.node[54].wlan.mac 	"sentWithoutRetry AC 3" 	0
scalar scenarioPRJP1.node[54].wlan.mac 	"numGivenUp AC 0" 	617
scalar scenarioPRJP1.node[54].wlan.mac 	"numGivenUp AC 1" 	0
scalar scenarioPRJP1.node[54].wlan.mac 	"numGivenUp AC 2" 	0
scalar scenarioPRJP1.node[54].wlan.mac 	"numGivenUp AC 3" 	0
scalar scenarioPRJP1.node[54].wlan.mac 	"numDropped AC 0" 	27
scalar scenarioPRJP1.node[54].wlan.mac 	"numDropped AC 1" 	0
scalar scenarioPRJP1.node[54].wlan.mac 	"numDropped AC 2" 	0
scalar scenarioPRJP1.node[54].wlan.mac 	"numDropped AC 3" 	0
scalar scenarioPRJP1.node[54].wlan.mac 	rcvdPkFromLL:count 	61474
attr interpolationmode  none
attr source  packetReceivedFromLower
attr title  "packets received from lower layer, count"
scalar scenarioPRJP1.node[54].wlan.mac 	rcvdPkFromLL:sum(packetBytes) 	11673982
attr interpolationmode  none
attr source  packetReceivedFromLower
attr title  "packets received from lower layer, sum(packetBytes)"
scalar scenarioPRJP1.node[54].wlan.mac 	sentDownPk:count 	11467
attr interpolationmode  none
attr source  packetSentToLower
attr title  "packets sent to lower layer, count"
scalar scenarioPRJP1.node[54].wlan.mac 	sentDownPk:sum(packetBytes) 	2010198
attr interpolationmode  none
attr source  packetSentToLower
attr title  "packets sent to lower layer, sum(packetBytes)"
scalar scenarioPRJP1.node[54].wlan.mac 	rcvdPkFromHL:count 	6179
attr interpolationmode  none
attr source  packetReceivedFromUpper
attr title  "packets received from higher layer, count"
scalar scenarioPRJP1.node[54].wlan.mac 	rcvdPkFromHL:sum(packetBytes) 	737488
attr interpolationmode  none
attr source  packetReceivedFromUpper
attr title  "packets received from higher layer, sum(packetBytes)"
scalar scenarioPRJP1.node[54].wlan.mac 	passedUpPk:count 	19048
attr interpolationmode  none
attr source  packetSentToUpper
attr title  "packets passed to higher layer, count"
scalar scenarioPRJP1.node[54].wlan.mac 	passedUpPk:sum(packetBytes) 	1537056
attr interpolationmode  none
attr source  packetSentToUpper
attr title  "packets passed to higher layer, sum(packetBytes)"
statistic scenarioPRJP1.node[54].wlan.radio 	radioChannel:histogram
field count 1
field mean 3
field stddev -nan
field sum 3
field sqrsum 9
field min 3
field max 3
attr interpolationmode  sample-hold
attr source  radioChannelChanged
attr title  "Radio channel, histogram"
bin	-INF	0
bin	2	0
bin	3	1
bin	4	0
scalar scenarioPRJP1.node[54].wlan.radio 	transmissionState:count 	45868
attr interpolationmode  sample-hold
attr source  transmissionStateChanged
attr title  "Radio transmission state, count"
scalar scenarioPRJP1.node[54].wlan.radio 	receptionState:count 	149841
attr interpolationmode  sample-hold
attr source  receptionStateChanged
attr title  "Radio reception state, count"
scalar scenarioPRJP1.node[54].wlan.radio 	radioMode:count 	22936
attr interpolationmode  sample-hold
attr source  radioModeChanged
attr title  "Radio mode, count"
statistic scenarioPRJP1.node[54].wlan.radio 	symbolErrorRate:histogram
field count 0
field mean -nan
field stddev -nan
field sum 0
field sqrsum 0
field min -nan
field max -nan
attr source  symbolErrorRate
attr title  "Symbol error rate, histogram"
bin	-INF	0
bin	-0.5	0
bin	-0.46666666666667	0
bin	-0.43333333333333	0
bin	-0.4	0
bin	-0.36666666666667	0
bin	-0.33333333333333	0
bin	-0.3	0
bin	-0.26666666666667	0
bin	-0.23333333333333	0
bin	-0.2	0
bin	-0.16666666666667	0
bin	-0.13333333333333	0
bin	-0.1	0
bin	-0.066666666666667	0
bin	-0.033333333333333	0
bin	0	0
bin	0.033333333333333	0
bin	0.066666666666667	0
bin	0.1	0
bin	0.13333333333333	0
bin	0.16666666666667	0
bin	0.2	0
bin	0.23333333333333	0
bin	0.26666666666667	0
bin	0.3	0
bin	0.33333333333333	0
bin	0.36666666666667	0
bin	0.4	0
bin	0.43333333333333	0
bin	0.46666666666667	0
bin	0.5	0
statistic scenarioPRJP1.node[54].wlan.radio 	bitErrorRate:histogram
field count 0
field mean -nan
field stddev -nan
field sum 0
field sqrsum 0
field min -nan
field max -nan
attr source  bitErrorRate
attr title  "Bit error rate, histogram"
bin	-INF	0
bin	-0.5	0
bin	-0.46666666666667	0
bin	-0.43333333333333	0
bin	-0.4	0
bin	-0.36666666666667	0
bin	-0.33333333333333	0
bin	-0.3	0
bin	-0.26666666666667	0
bin	-0.23333333333333	0
bin	-0.2	0
bin	-0.16666666666667	0
bin	-0.13333333333333	0
bin	-0.1	0
bin	-0.066666666666667	0
bin	-0.033333333333333	0
bin	0	0
bin	0.033333333333333	0
bin	0.066666666666667	0
bin	0.1	0
bin	0.13333333333333	0
bin	0.16666666666667	0
bin	0.2	0
bin	0.23333333333333	0
bin	0.26666666666667	0
bin	0.3	0
bin	0.33333333333333	0
bin	0.36666666666667	0
bin	0.4	0
bin	0.43333333333333	0
bin	0.46666666666667	0
bin	0.5	0
statistic scenarioPRJP1.node[54].wlan.radio 	packetErrorRate:histogram
field count 61474
field mean 0.26404277781049
field stddev 0.42979021966648
field sum 16231.765723122
field sqrsum 15641.150504852
field min 0
field max 1
attr source  packetErrorRate
attr title  "Packet error rate, histogram"
bin	-INF	0
bin	-0.5	0
bin	-0.43333333333333	0
bin	-0.36666666666667	0
bin	-0.3	0
bin	-0.23333333333333	0
bin	-0.16666666666667	0
bin	-0.1	0
bin	-0.033333333333333	42847
bin	0.033333333333333	968
bin	0.1	457
bin	0.16666666666667	326
bin	0.23333333333333	272
bin	0.3	212
bin	0.36666666666667	188
bin	0.43333333333333	160
bin	0.5	161
bin	0.56666666666667	152
bin	0.63333333333333	161
bin	0.7	151
bin	0.76666666666667	176
bin	0.83333333333333	217
bin	0.9	298
bin	0.96666666666667	14728
bin	1.0333333333333	0
bin	1.1	0
bin	1.1666666666667	0
bin	1.2333333333333	0
bin	1.3	0
bin	1.3666666666667	0
bin	1.4333333333333	0
bin	1.5	0
statistic scenarioPRJP1.node[54].wlan.radio 	minSNIR:histogram
field count 61474
field mean 410.65593741955
field stddev 6371.5829430608
field sum 25244663.096929
field sqrsum 2505990505739.2
field min 0.00071535765007222
field max 644952.91563192
attr source  minSNIR
attr title  "Min SNIR, histogram"
bin	-INF	0
bin	-157.18033437896	0
bin	-136.01841300675	0
bin	-114.85649163454	0
bin	-93.694570262326	0
bin	-72.532648890116	0
bin	-51.370727517906	0
bin	-30.208806145695	0
bin	-9.0468847734853	35215
bin	12.115036598725	6562
bin	33.276957970935	2576
bin	54.438879343145	1673
bin	75.600800715355	1247
bin	96.762722087566	1094
bin	117.92464345978	901
bin	139.08656483199	681
bin	160.2484862042	530
bin	181.41040757641	441
bin	202.57232894862	341
bin	223.73425032083	330
bin	244.89617169304	282
bin	266.05809306525	245
bin	287.22001443746	267
bin	308.38193580967	214
bin	329.54385718188	231
bin	350.70577855409	186
bin	371.8676999263	171
bin	393.02962129851	143
bin	414.19154267072	155
bin	435.35346404293	154
bin	456.51538541514	127
bin	477.67730678735	7708
scalar scenarioPRJP1.node[54].lo0.lo 	droppedPkBitError:count 	0
attr interpolationmode  none
attr source  dropPkBitError
attr title  "packets dropped/bit error, count"
scalar scenarioPRJP1.node[54].lo0.lo 	droppedPkBitError:sum(packetBytes) 	0
attr interpolationmode  none
attr source  dropPkBitError
attr title  "packets dropped/bit error, sum(packetBytes)"
scalar scenarioPRJP1.node[54].lo0.lo 	rcvdPkFromHL:count 	12
attr interpolationmode  none
attr source  packetReceivedFromUpper
attr title  "packets received from higher layer, count"
scalar scenarioPRJP1.node[54].lo0.lo 	rcvdPkFromHL:sum(packetBytes) 	6240
attr interpolationmode  none
attr source  packetReceivedFromUpper
attr title  "packets received from higher layer, sum(packetBytes)"
scalar scenarioPRJP1.node[54].lo0.lo 	passedUpPk:count 	12
attr interpolationmode  none
attr source  packetSentToUpper
attr title  "packets passed to higher layer, count"
scalar scenarioPRJP1.node[54].lo0.lo 	passedUpPk:sum(packetBytes) 	6240
attr interpolationmode  none
attr source  packetSentToUpper
attr title  "packets passed to higher layer, sum(packetBytes)"
scalar scenarioPRJP1.node[73].app 	"Total sent" 	372
scalar scenarioPRJP1.node[73].app 	"Total received" 	21
scalar scenarioPRJP1.node[73].app 	"Total deleted" 	0
scalar scenarioPRJP1.node[73].app 	dropPk:count 	0
attr interpolationmode  none
attr source  dropPk
attr title  "packets dropped, count"
scalar scenarioPRJP1.node[73].app 	dropPk:sum(packetBytes) 	0
attr interpolationmode  none
attr source  dropPk
attr title  "packets dropped, sum(packetBytes)"
scalar scenarioPRJP1.node[73].app 	outOfOrderPk:count 	2
attr interpolationmode  none
attr source  outOfOrderPk
attr title  "packets received out of order, count"
scalar scenarioPRJP1.node[73].app 	outOfOrderPk:sum(packetBytes) 	1024
attr interpolationmode  none
attr source  outOfOrderPk
attr title  "packets received out of order, sum(packetBytes)"
scalar scenarioPRJP1.node[73].app 	rcvdPk:count 	21
attr interpolationmode  none
attr source  rcvdPk
attr title  "packets received, count"
scalar scenarioPRJP1.node[73].app 	rcvdPk:sum(packetBytes) 	10752
attr interpolationmode  none
attr source  rcvdPk
attr title  "packets received, sum(packetBytes)"
statistic scenarioPRJP1.node[73].app 	endToEndDelay:histogram
field count 21
field mean 0.29228093612595
field stddev 0.5602224920732
field sum 6.137899658645
field sqrsum 8.07097587057
field min 0.003349518757
field max 1.901347947174
attr interpolationmode  none
attr source  messageAge(rcvdPk)
attr title  "delay, histogram"
attr unit  s
bin	-INF	0
bin	-0.9456496954515	0
bin	-0.81911646689037	0
bin	-0.69258323832923	0
bin	-0.5660500097681	0
bin	-0.43951678120697	0
bin	-0.31298355264583	0
bin	-0.1864503240847	0
bin	-0.059917095523567	13
bin	0.066616133037567	1
bin	0.1931493615987	2
bin	0.31968259015983	0
bin	0.44621581872097	1
bin	0.5727490472821	2
bin	0.69928227584323	0
bin	0.82581550440437	0
bin	0.9523487329655	0
bin	1.0788819615266	0
bin	1.2054151900878	0
bin	1.3319484186489	0
bin	1.45848164721	0
bin	1.5850148757712	0
bin	1.7115481043323	0
bin	1.8380813328934	2
bin	1.9646145614546	0
bin	2.0911477900157	0
bin	2.2176810185768	0
bin	2.344214247138	0
bin	2.4707474756991	0
bin	2.5972807042602	0
bin	2.7238139328214	0
bin	2.8503471613825	0
scalar scenarioPRJP1.node[73].app 	sentPk:count 	372
attr interpolationmode  none
attr source  sentPk
attr title  "packets sent, count"
scalar scenarioPRJP1.node[73].app 	sentPk:sum(packetBytes) 	190464
attr interpolationmode  none
attr source  sentPk
attr title  "packets sent, sum(packetBytes)"
scalar scenarioPRJP1.node[73].udp 	droppedPkBadChecksum:count 	0
attr interpolationmode  none
attr title  "packets dropped (checksum error), count"
scalar scenarioPRJP1.node[73].udp 	droppedPkWrongPort:count 	0
attr interpolationmode  none
attr title  "packets dropped (wrong port), count"
scalar scenarioPRJP1.node[73].udp 	passedUpPk:count 	23
attr interpolationmode  none
attr title  "packets passed up, count"
scalar scenarioPRJP1.node[73].udp 	rcvdPk:count 	23
attr interpolationmode  none
attr source  rcvdPk
attr title  "packets received, count"
scalar scenarioPRJP1.node[73].udp 	rcvdPk:sum(packetBytes) 	11960
attr interpolationmode  none
attr source  rcvdPk
attr title  "packets received, sum(packetBytes)"
scalar scenarioPRJP1.node[73].udp 	sentPk:count 	372
attr interpolationmode  none
attr source  sentPk
attr title  "packets sent, count"
scalar scenarioPRJP1.node[73].udp 	sentPk:sum(packetBytes) 	193440
attr interpolationmode  none
attr source  sentPk
attr title  "packets sent, sum(packetBytes)"
scalar scenarioPRJP1.node[73].networkLayer.arp 	failedARPResolution:count 	2
attr title  "ARP failed resolutions, count"
scalar scenarioPRJP1.node[73].networkLayer.arp 	completedARPResolution:count 	204
attr title  "ARP completed resolutions, count"
scalar scenarioPRJP1.node[73].networkLayer.arp 	initiatedARPResolution:count 	24
attr title  "ARP initiated resolutions, count"
scalar scenarioPRJP1.node[73].networkLayer.arp 	sentReply:count 	15
attr title  "ARP replies sent, count"
scalar scenarioPRJP1.node[73].networkLayer.arp 	sentReq:count 	36
attr title  "ARP request sent, count"
scalar scenarioPRJP1.node[73].mobility 	startTime 	7.4
scalar scenarioPRJP1.node[73].mobility 	totalTime 	153.8
scalar scenarioPRJP1.node[73].mobility 	stopTime 	161.3
scalar scenarioPRJP1.node[73].mobility 	minSpeed 	2.475459035085e-13
scalar scenarioPRJP1.node[73].mobility 	maxSpeed 	16.977887141801
scalar scenarioPRJP1.node[73].mobility 	totalDistance 	1484.2396663513
scalar scenarioPRJP1.node[73].mobility 	totalCO2Emission 	436.14660301705
scalar scenarioPRJP1.node[73].wlan.mgmt 	dataQueueLen:max 	9
attr interpolationmode  sample-hold
attr title  "data queue length, max"
scalar scenarioPRJP1.node[73].wlan.mgmt 	dataQueueLen:timeavg 	0.00027535190460039
attr interpolationmode  sample-hold
attr title  "data queue length, timeavg"
scalar scenarioPRJP1.node[73].wlan.mgmt 	dropPkByQueue:count 	0
attr interpolationmode  none
attr source  dropPkByQueue
attr title  "packets dropped by queue, count"
scalar scenarioPRJP1.node[73].wlan.mgmt 	dropPkByQueue:sum(packetBytes) 	0
attr interpolationmode  none
attr source  dropPkByQueue
attr title  "packets dropped by queue, sum(packetBytes)"
scalar scenarioPRJP1.node[73].wlan.mac 	"number of received packets" 	2055
scalar scenarioPRJP1.node[73].wlan.mac 	"number of collisions" 	24064
scalar scenarioPRJP1.node[73].wlan.mac 	"number of internal collisions" 	0
scalar scenarioPRJP1.node[73].wlan.mac 	"number of retry for AC 0" 	5441
scalar scenarioPRJP1.node[73].wlan.mac 	"number of retry for AC 1" 	0
scalar scenarioPRJP1.node[73].wlan.mac 	"number of retry for AC 2" 	0
scalar scenarioPRJP1.node[73].wlan.mac 	"number of retry for AC 3" 	0
scalar scenarioPRJP1.node[73].wlan.mac 	"sent and received bits" 	5589184
scalar scenarioPRJP1.node[73].wlan.mac 	"sent packet within AC 0" 	1042
scalar scenarioPRJP1.node[73].wlan.mac 	"sent packet within AC 1" 	0
scalar scenarioPRJP1.node[73].wlan.mac 	"sent packet within AC 2" 	0
scalar scenarioPRJP1.node[73].wlan.mac 	"sent packet within AC 3" 	0
scalar scenarioPRJP1.node[73].wlan.mac 	"sent in TXOP " 	0
scalar scenarioPRJP1.node[73].wlan.mac 	"sentWithoutRetry AC 0" 	867
scalar scenarioPRJP1.node[73].wlan.mac 	"sentWithoutRetry AC 1" 	0
scalar scenarioPRJP1.node[73].wlan.mac 	"sentWithoutRetry AC 2" 	0
scalar scenarioPRJP1.node[73].wlan.mac 	"sentWithoutRetry AC 3" 	0
scalar scenarioPRJP1.node[73].wlan.mac 	"numGivenUp AC 0" 	841
scalar scenarioPRJP1.node[73].wlan.mac 	"numGivenUp AC 1" 	0
scalar scenarioPRJP1.node[73].wlan.mac 	"numGivenUp AC 2" 	0
scalar scenarioPRJP1.node[73].wlan.mac 	"numGivenUp AC 3" 	0
scalar scenarioPRJP1.node[73].wlan.mac 	"numDropped AC 0" 	4
scalar scenarioPRJP1.node[73].wlan.mac 	"numDropped AC 1" 	0
scalar scenarioPRJP1.node[73].wlan.mac 	"numDropped AC 2" 	0
scalar scenarioPRJP1.node[73].wlan.mac 	"numDropped AC 3" 	0
scalar scenarioPRJP1.node[73].wlan.mac 	rcvdPkFromLL:count 	87440
attr interpolationmode  none
attr source  packetReceivedFromLower
attr title  "packets received from lower layer, count"
scalar scenarioPRJP1.node[73].wlan.mac 	rcvdPkFromLL:sum(packetBytes) 	16214602
attr interpolationmode  none
attr source  packetReceivedFromLower
attr title  "packets received from lower layer, sum(packetBytes)"
scalar scenarioPRJP1.node[73].wlan.mac 	sentDownPk:count 	15076
attr interpolationmode  none
attr source  packetSentToLower
attr title  "packets sent to lower layer, count"
scalar scenarioPRJP1.node[73].wlan.mac 	sentDownPk:sum(packetBytes) 	2773738
attr interpolationmode  none
attr source  packetSentToLower
attr title  "packets sent to lower layer, sum(packetBytes)"
scalar scenarioPRJP1.node[73].wlan.mac 	rcvdPkFromHL:count 	7584
attr interpolationmode  none
attr source  packetReceivedFromUpper
attr title  "packets received from higher layer, count"
scalar scenarioPRJP1.node[73].wlan.mac 	rcvdPkFromHL:sum(packetBytes) 	970552
attr interpolationmode  none
attr source  packetReceivedFromUpper
attr title  "packets received from higher layer, sum(packetBytes)"
scalar scenarioPRJP1.node[73].wlan.mac 	passedUpPk:count 	23822
attr interpolationmode  none
attr source  packetSentToUpper
attr title  "packets passed to higher layer, count"
scalar scenarioPRJP1.node[73].wlan.mac 	passedUpPk:sum(packetBytes) 	1996428
attr interpolationmode  none
attr source  packetSentToUpper
attr title  "packets passed to higher layer, sum(packetBytes)"
statistic scenarioPRJP1.node[73].wlan.radio 	radioChannel:histogram
field count 1
field mean 3
field stddev -nan
field sum 3
field sqrsum 9
field min 3
field max 3
attr interpolationmode  sample-hold
attr source  radioChannelChanged
attr title  "Radio channel, histogram"
bin	-INF	0
bin	2	0
bin	3	1
bin	4	0
scalar scenarioPRJP1.node[73].wlan.radio 	transmissionState:count 	60304
attr interpolationmode  sample-hold
attr source  transmissionStateChanged
attr title  "Radio transmission state, count"
scalar scenarioPRJP1.node[73].wlan.radio 	receptionState:count 	209938
attr interpolationmode  sample-hold
attr source  receptionStateChanged
attr title  "Radio reception state, count"
scalar scenarioPRJP1.node[73].wlan.radio 	radioMode:count 	30154
attr interpolationmode  sample-hold
attr source  radioModeChanged
attr title  "Radio mode, count"
statistic scenarioPRJP1.node[73].wlan.radio 	symbolErrorRate:histogram
field count 0
field mean -nan
field stddev -nan
field sum 0
field sqrsum 0
field min -nan
field max -nan
attr source  symbolErrorRate
attr title  "Symbol error rate, histogram"
bin	-INF	0
bin	-0.5	0
bin	-0.46666666666667	0
bin	-0.43333333333333	0
bin	-0.4	0
bin	-0.36666666666667	0
bin	-0.33333333333333	0
bin	-0.3	0
bin	-0.26666666666667	0
bin	-0.23333333333333	0
bin	-0.2	0
bin	-0.16666666666667	0
bin	-0.13333333333333	0
bin	-0.1	0
bin	-0.066666666666667	0
bin	-0.033333333333333	0
bin	0	0
bin	0.033333333333333	0
bin	0.066666666666667	0
bin	0.1	0
bin	0.13333333333333	0
bin	0.16666666666667	0
bin	0.2	0
bin	0.23333333333333	0
bin	0.26666666666667	0
bin	0.3	0
bin	0.33333333333333	0
bin	0.36666666666667	0
bin	0.4	0
bin	0.43333333333333	0
bin	0.46666666666667	0
bin	0.5	0
statistic scenarioPRJP1.node[73].wlan.radio 	bitErrorRate:histogram
field count 0
field mean -nan
field stddev -nan
field sum 0
field sqrsum 0
field min -nan
field max -nan
attr source  bitErrorRate
attr title  "Bit error rate, histogram"
bin	-INF	0
bin	-0.5	0
bin	-0.46666666666667	0
bin	-0.43333333333333	0
bin	-0.4	0
bin	-0.36666666666667	0
bin	-0.33333333333333	0
bin	-0.3	0
bin	-0.26666666666667	0
bin	-0.23333333333333	0
bin	-0.2	0
bin	-0.16666666666667	0
bin	-0.13333333333333	0
bin	-0.1	0
bin	-0.066666666666667	0
bin	-0.033333333333333	0
bin	0	0
bin	0.033333333333333	0
bin	0.066666666666667	0
bin	0.1	0
bin	0.13333333333333	0
bin	0.16666666666667	0
bin	0.2	0
bin	0.23333333333333	0
bin	0.26666666666667	0
bin	0.3	0
bin	0.33333333333333	0
bin	0.36666666666667	0
bin	0.4	0
bin	0.43333333333333	0
bin	0.46666666666667	0
bin	0.5	0
statistic scenarioPRJP1.node[73].wlan.radio 	packetErrorRate:histogram
field count 87440
field mean 0.24354210303553
field stddev 0.41763194817677
field sum 21295.321489427
field sqrsum 20437.106839328
field min 0
field max 1
attr source  packetErrorRate
attr title  "Packet error rate, histogram"
bin	-INF	0
bin	-3.9351884027483e-06	0
bin	-3.4104966157152e-06	0
bin	-2.8858048286821e-06	0
bin	-2.361113041649e-06	0
bin	-1.8364212546159e-06	0
bin	-1.3117294675828e-06	0
bin	-7.8703768054966e-07	0
bin	-2.6234589351655e-07	50164
bin	2.6234589351655e-07	949
bin	7.8703768054966e-07	450
bin	1.3117294675828e-06	297
bin	1.8364212546159e-06	220
bin	2.361113041649e-06	191
bin	2.8858048286821e-06	157
bin	3.4104966157152e-06	129
bin	3.9351884027483e-06	117
bin	4.4598801897814e-06	92
bin	4.9845719768145e-06	110
bin	5.5092637638476e-06	86
bin	6.0339555508807e-06	72
bin	6.5586473379139e-06	86
bin	7.083339124947e-06	62
bin	7.6080309119801e-06	58
bin	8.1327226990132e-06	55
bin	8.6574144860463e-06	50
bin	9.1821062730794e-06	49
bin	9.7067980601125e-06	50
bin	1.0231489847146e-05	50
bin	1.0756181634179e-05	45
bin	1.1280873421212e-05	43
bin	1.1805565208245e-05	33858
statistic scenarioPRJP1.node[73].wlan.radio 	minSNIR:histogram
field count 87440
field mean 523.75599087197
field stddev 7841.5321920454
field sum 45797223.841845
field sqrsum 5400578076000.5
field min 0.00019797330221712
field max 753239.71915634
attr source  minSNIR
attr title  "Min SNIR, histogram"
bin	-INF	0
bin	-2026.3097690364	0
bin	-1755.6558060477	0
bin	-1485.0018430591	0
bin	-1214.3478800704	0
bin	-943.6939170817	0
bin	-673.03995409301	0
bin	-402.38599110433	0
bin	-131.73202811565	72898
bin	138.92193487304	5246
bin	409.57589786172	2222
bin	680.22986085041	1203
bin	950.88382383909	873
bin	1221.5377868278	615
bin	1492.1917498165	503
bin	1762.8457128051	406
bin	2033.4996757938	319
bin	2304.1536387825	251
bin	2574.8076017712	201
bin	2845.4615647599	171
bin	3116.1155277486	156
bin	3386.7694907372	150
bin	3657.4234537259	126
bin	3928.0774167146	102
bin	4198.7313797033	91
bin	4469.385342692	88
bin	4740.0393056807	70
bin	5010.6932686694	94
bin	5281.347231658	65
bin	5552.0011946467	75
bin	5822.6551576354	84
bin	6093.3091206241	1431
scalar scenarioPRJP1.node[73].lo0.lo 	droppedPkBitError:count 	0
attr interpolationmode  none
attr source  dropPkBitError
attr title  "packets dropped/bit error, count"
scalar scenarioPRJP1.node[73].lo0.lo 	droppedPkBitError:sum(packetBytes) 	0
attr interpolationmode  none
attr source  dropPkBitError
attr title  "packets dropped/bit error, sum(packetBytes)"
scalar scenarioPRJP1.node[73].lo0.lo 	rcvdPkFromHL:count 	23
attr interpolationmode  none
attr source  packetReceivedFromUpper
attr title  "packets received from higher layer, count"
scalar scenarioPRJP1.node[73].lo0.lo 	rcvdPkFromHL:sum(packetBytes) 	11960
attr interpolationmode  none
attr source  packetReceivedFromUpper
attr title  "packets received from higher layer, sum(packetBytes)"
scalar scenarioPRJP1.node[73].lo0.lo 	passedUpPk:count 	23
attr interpolationmode  none
attr source  packetSentToUpper
attr title  "packets passed to higher layer, count"
scalar scenarioPRJP1.node[73].lo0.lo 	passedUpPk:sum(packetBytes) 	11960
attr interpolationmode  none
attr source  packetSentToUpper
attr title  "packets passed to higher layer, sum(packetBytes)"
scalar scenarioPRJP1.node[48].app 	"Total sent" 	374
scalar scenarioPRJP1.node[48].app 	"Total received" 	16
scalar scenarioPRJP1.node[48].app 	"Total deleted" 	0
scalar scenarioPRJP1.node[48].app 	dropPk:count 	0
attr interpolationmode  none
attr source  dropPk
attr title  "packets dropped, count"
scalar scenarioPRJP1.node[48].app 	dropPk:sum(packetBytes) 	0
attr interpolationmode  none
attr source  dropPk
attr title  "packets dropped, sum(packetBytes)"
scalar scenarioPRJP1.node[48].app 	outOfOrderPk:count 	0
attr interpolationmode  none
attr source  outOfOrderPk
attr title  "packets received out of order, count"
scalar scenarioPRJP1.node[48].app 	outOfOrderPk:sum(packetBytes) 	0
attr interpolationmode  none
attr source  outOfOrderPk
attr title  "packets received out of order, sum(packetBytes)"
scalar scenarioPRJP1.node[48].app 	rcvdPk:count 	16
attr interpolationmode  none
attr source  rcvdPk
attr title  "packets received, count"
scalar scenarioPRJP1.node[48].app 	rcvdPk:sum(packetBytes) 	8192
attr interpolationmode  none
attr source  rcvdPk
attr title  "packets received, sum(packetBytes)"
statistic scenarioPRJP1.node[48].app 	endToEndDelay:histogram
field count 16
field mean 0.45694486894106
field stddev 1.0570754434885
field sum 7.311117903057
field sqrsum 20.101905210421
field min 0.002141113078
field max 4.246758464564
attr interpolationmode  none
attr source  messageAge(rcvdPk)
attr title  "delay, histogram"
attr unit  s
bin	-INF	0
bin	-2.120167562665	0
bin	-1.8371930725659	0
bin	-1.5542185824669	0
bin	-1.2712440923678	0
bin	-0.98826960226873	0
bin	-0.70529511216967	0
bin	-0.4223206220706	0
bin	-0.13934613197153	9
bin	0.14362835812753	3
bin	0.4266028482266	2
bin	0.70957733832567	0
bin	0.99255182842473	1
bin	1.2755263185238	0
bin	1.5585008086229	0
bin	1.8414752987219	0
bin	2.124449788821	0
bin	2.4074242789201	0
bin	2.6903987690191	0
bin	2.9733732591182	0
bin	3.2563477492173	0
bin	3.5393222393163	0
bin	3.8222967294154	0
bin	4.1052712195145	1
bin	4.3882457096135	0
bin	4.6712201997126	0
bin	4.9541946898117	0
bin	5.2371691799107	0
bin	5.5201436700098	0
bin	5.8031181601089	0
bin	6.0860926502079	0
bin	6.369067140307	0
scalar scenarioPRJP1.node[48].app 	sentPk:count 	374
attr interpolationmode  none
attr source  sentPk
attr title  "packets sent, count"
scalar scenarioPRJP1.node[48].app 	sentPk:sum(packetBytes) 	191488
attr interpolationmode  none
attr source  sentPk
attr title  "packets sent, sum(packetBytes)"
scalar scenarioPRJP1.node[48].udp 	droppedPkBadChecksum:count 	0
attr interpolationmode  none
attr title  "packets dropped (checksum error), count"
scalar scenarioPRJP1.node[48].udp 	droppedPkWrongPort:count 	0
attr interpolationmode  none
attr title  "packets dropped (wrong port), count"
scalar scenarioPRJP1.node[48].udp 	passedUpPk:count 	16
attr interpolationmode  none
attr title  "packets passed up, count"
scalar scenarioPRJP1.node[48].udp 	rcvdPk:count 	16
attr interpolationmode  none
attr source  rcvdPk
attr title  "packets received, count"
scalar scenarioPRJP1.node[48].udp 	rcvdPk:sum(packetBytes) 	8320
attr interpolationmode  none
attr source  rcvdPk
attr title  "packets received, sum(packetBytes)"
scalar scenarioPRJP1.node[48].udp 	sentPk:count 	374
attr interpolationmode  none
attr source  sentPk
attr title  "packets sent, count"
scalar scenarioPRJP1.node[48].udp 	sentPk:sum(packetBytes) 	194480
attr interpolationmode  none
attr source  sentPk
attr title  "packets sent, sum(packetBytes)"
scalar scenarioPRJP1.node[48].networkLayer.arp 	failedARPResolution:count 	2
attr title  "ARP failed resolutions, count"
scalar scenarioPRJP1.node[48].networkLayer.arp 	completedARPResolution:count 	155
attr title  "ARP completed resolutions, count"
scalar scenarioPRJP1.node[48].networkLayer.arp 	initiatedARPResolution:count 	17
attr title  "ARP initiated resolutions, count"
scalar scenarioPRJP1.node[48].networkLayer.arp 	sentReply:count 	11
attr title  "ARP replies sent, count"
scalar scenarioPRJP1.node[48].networkLayer.arp 	sentReq:count 	32
attr title  "ARP request sent, count"
scalar scenarioPRJP1.node[48].mobility 	startTime 	4.9
scalar scenarioPRJP1.node[48].mobility 	totalTime 	156.4
scalar scenarioPRJP1.node[48].mobility 	stopTime 	161.4
scalar scenarioPRJP1.node[48].mobility 	minSpeed 	2.4754270653641e-13
scalar scenarioPRJP1.node[48].mobility 	maxSpeed 	16.76983268947
scalar scenarioPRJP1.node[48].mobility 	totalDistance 	1484.6553209081
scalar scenarioPRJP1.node[48].mobility 	totalCO2Emission 	437.29692100739
scalar scenarioPRJP1.node[48].wlan.mgmt 	dataQueueLen:max 	7
attr interpolationmode  sample-hold
attr title  "data queue length, max"
scalar scenarioPRJP1.node[48].wlan.mgmt 	dataQueueLen:timeavg 	0
attr interpolationmode  sample-hold
attr title  "data queue length, timeavg"
scalar scenarioPRJP1.node[48].wlan.mgmt 	dropPkByQueue:count 	0
attr interpolationmode  none
attr source  dropPkByQueue
attr title  "packets dropped by queue, count"
scalar scenarioPRJP1.node[48].wlan.mgmt 	dropPkByQueue:sum(packetBytes) 	0
attr interpolationmode  none
attr source  dropPkByQueue
attr title  "packets dropped by queue, sum(packetBytes)"
scalar scenarioPRJP1.node[48].wlan.mac 	"number of received packets" 	2430
scalar scenarioPRJP1.node[48].wlan.mac 	"number of collisions" 	19897
scalar scenarioPRJP1.node[48].wlan.mac 	"number of internal collisions" 	0
scalar scenarioPRJP1.node[48].wlan.mac 	"number of retry for AC 0" 	5737
scalar scenarioPRJP1.node[48].wlan.mac 	"number of retry for AC 1" 	0
scalar scenarioPRJP1.node[48].wlan.mac 	"number of retry for AC 2" 	0
scalar scenarioPRJP1.node[48].wlan.mac 	"number of retry for AC 3" 	0
scalar scenarioPRJP1.node[48].wlan.mac 	"sent and received bits" 	5211680
scalar scenarioPRJP1.node[48].wlan.mac 	"sent packet within AC 0" 	1044
scalar scenarioPRJP1.node[48].wlan.mac 	"sent packet within AC 1" 	0
scalar scenarioPRJP1.node[48].wlan.mac 	"sent packet within AC 2" 	0
scalar scenarioPRJP1.node[48].wlan.mac 	"sent packet within AC 3" 	0
scalar scenarioPRJP1.node[48].wlan.mac 	"sent in TXOP " 	0
scalar scenarioPRJP1.node[48].wlan.mac 	"sentWithoutRetry AC 0" 	908
scalar scenarioPRJP1.node[48].wlan.mac 	"sentWithoutRetry AC 1" 	0
scalar scenarioPRJP1.node[48].wlan.mac 	"sentWithoutRetry AC 2" 	0
scalar scenarioPRJP1.node[48].wlan.mac 	"sentWithoutRetry AC 3" 	0
scalar scenarioPRJP1.node[48].wlan.mac 	"numGivenUp AC 0" 	908
scalar scenarioPRJP1.node[48].wlan.mac 	"numGivenUp AC 1" 	0
scalar scenarioPRJP1.node[48].wlan.mac 	"numGivenUp AC 2" 	0
scalar scenarioPRJP1.node[48].wlan.mac 	"numGivenUp AC 3" 	0
scalar scenarioPRJP1.node[48].wlan.mac 	"numDropped AC 0" 	0
scalar scenarioPRJP1.node[48].wlan.mac 	"numDropped AC 1" 	0
scalar scenarioPRJP1.node[48].wlan.mac 	"numDropped AC 2" 	0
scalar scenarioPRJP1.node[48].wlan.mac 	"numDropped AC 3" 	0
scalar scenarioPRJP1.node[48].wlan.mac 	rcvdPkFromLL:count 	77540
attr interpolationmode  none
attr source  packetReceivedFromLower
attr title  "packets received from lower layer, count"
scalar scenarioPRJP1.node[48].wlan.mac 	rcvdPkFromLL:sum(packetBytes) 	15220916
attr interpolationmode  none
attr source  packetReceivedFromLower
attr title  "packets received from lower layer, sum(packetBytes)"
scalar scenarioPRJP1.node[48].wlan.mac 	sentDownPk:count 	15098
attr interpolationmode  none
attr source  packetSentToLower
attr title  "packets sent to lower layer, count"
scalar scenarioPRJP1.node[48].wlan.mac 	sentDownPk:sum(packetBytes) 	2986188
attr interpolationmode  none
attr source  packetSentToLower
attr title  "packets sent to lower layer, sum(packetBytes)"
scalar scenarioPRJP1.node[48].wlan.mac 	rcvdPkFromHL:count 	6931
attr interpolationmode  none
attr source  packetReceivedFromUpper
attr title  "packets received from higher layer, count"
scalar scenarioPRJP1.node[48].wlan.mac 	rcvdPkFromHL:sum(packetBytes) 	964708
attr interpolationmode  none
attr source  packetReceivedFromUpper
attr title  "packets received from higher layer, sum(packetBytes)"
scalar scenarioPRJP1.node[48].wlan.mac 	passedUpPk:count 	21272
attr interpolationmode  none
attr source  packetSentToUpper
attr title  "packets passed to higher layer, count"
scalar scenarioPRJP1.node[48].wlan.mac 	passedUpPk:sum(packetBytes) 	1841464
attr interpolationmode  none
attr source  packetSentToUpper
attr title  "packets passed to higher layer, sum(packetBytes)"
statistic scenarioPRJP1.node[48].wlan.radio 	radioChannel:histogram
field count 1
field mean 3
field stddev -nan
field sum 3
field sqrsum 9
field min 3
field max 3
attr interpolationmode  sample-hold
attr source  radioChannelChanged
attr title  "Radio channel, histogram"
bin	-INF	0
bin	2	0
bin	3	1
bin	4	0
scalar scenarioPRJP1.node[48].wlan.radio 	transmissionState:count 	60392
attr interpolationmode  sample-hold
attr source  transmissionStateChanged
attr title  "Radio transmission state, count"
scalar scenarioPRJP1.node[48].wlan.radio 	receptionState:count 	189316
attr interpolationmode  sample-hold
attr source  receptionStateChanged
attr title  "Radio reception state, count"
scalar scenarioPRJP1.node[48].wlan.radio 	radioMode:count 	30198
attr interpolationmode  sample-hold
attr source  radioModeChanged
attr title  "Radio mode, count"
statistic scenarioPRJP1.node[48].wlan.radio 	symbolErrorRate:histogram
field count 0
field mean -nan
field stddev -nan
field sum 0
field sqrsum 0
field min -nan
field max -nan
attr source  symbolErrorRate
attr title  "Symbol error rate, histogram"
bin	-INF	0
bin	-0.5	0
bin	-0.46666666666667	0
bin	-0.43333333333333	0
bin	-0.4	0
bin	-0.36666666666667	0
bin	-0.33333333333333	0
bin	-0.3	0
bin	-0.26666666666667	0
bin	-0.23333333333333	0
bin	-0.2	0
bin	-0.16666666666667	0
bin	-0.13333333333333	0
bin	-0.1	0
bin	-0.066666666666667	0
bin	-0.033333333333333	0
bin	0	0
bin	0.033333333333333	0
bin	0.066666666666667	0
bin	0.1	0
bin	0.13333333333333	0
bin	0.16666666666667	0
bin	0.2	0
bin	0.23333333333333	0
bin	0.26666666666667	0
bin	0.3	0
bin	0.33333333333333	0
bin	0.36666666666667	0
bin	0.4	0
bin	0.43333333333333	0
bin	0.46666666666667	0
bin	0.5	0
statistic scenarioPRJP1.node[48].wlan.radio 	bitErrorRate:histogram
field count 0
field mean -nan
field stddev -nan
field sum 0
field sqrsum 0
field min -nan
field max -nan
attr source  bitErrorRate
attr title  "Bit error rate, histogram"
bin	-INF	0
bin	-0.5	0
bin	-0.46666666666667	0
bin	-0.43333333333333	0
bin	-0.4	0
bin	-0.36666666666667	0
bin	-0.33333333333333	0
bin	-0.3	0
bin	-0.26666666666667	0
bin	-0.23333333333333	0
bin	-0.2	0
bin	-0.16666666666667	0
bin	-0.13333333333333	0
bin	-0.1	0
bin	-0.066666666666667	0
bin	-0.033333333333333	0
bin	0	0
bin	0.033333333333333	0
bin	0.066666666666667	0
bin	0.1	0
bin	0.13333333333333	0
bin	0.16666666666667	0
bin	0.2	0
bin	0.23333333333333	0
bin	0.26666666666667	0
bin	0.3	0
bin	0.33333333333333	0
bin	0.36666666666667	0
bin	0.4	0
bin	0.43333333333333	0
bin	0.46666666666667	0
bin	0.5	0
statistic scenarioPRJP1.node[48].wlan.radio 	packetErrorRate:histogram
field count 77540
field mean 0.2305112574606
field stddev 0.40936568710844
field sum 17873.842903495
field sqrsum 17114.12823179
field min 0
field max 1
attr source  packetErrorRate
attr title  "Packet error rate, histogram"
bin	-INF	0
bin	-0.5	0
bin	-0.43333333333333	0
bin	-0.36666666666667	0
bin	-0.3	0
bin	-0.23333333333333	0
bin	-0.16666666666667	0
bin	-0.1	0
bin	-0.033333333333333	56492
bin	0.033333333333333	1300
bin	0.1	635
bin	0.16666666666667	442
bin	0.23333333333333	353
bin	0.3	255
bin	0.36666666666667	254
bin	0.43333333333333	205
bin	0.5	212
bin	0.56666666666667	192
bin	0.63333333333333	188
bin	0.7	191
bin	0.76666666666667	211
bin	0.83333333333333	235
bin	0.9	384
bin	0.96666666666667	15991
bin	1.0333333333333	0
bin	1.1	0
bin	1.1666666666667	0
bin	1.2333333333333	0
bin	1.3	0
bin	1.3666666666667	0
bin	1.4333333333333	0
bin	1.5	0
statistic scenarioPRJP1.node[48].wlan.radio 	minSNIR:histogram
field count 77540
field mean 302.27069414309
field stddev 4473.1718325414
field sum 23438069.623855
field sqrsum 1558583136824.8
field min 0.00016860829401812
field max 753146.6339634
attr source  minSNIR
attr title  "Min SNIR, histogram"
bin	-INF	0
bin	-2339.8601904081	0
bin	-2027.7451338536	0
bin	-1715.6300772992	0
bin	-1403.5150207448	0
bin	-1091.3999641903	0
bin	-779.28490763591	0
bin	-467.16985108147	0
bin	-155.05479452704	69466
bin	157.06026202739	4015
bin	469.17531858183	1174
bin	781.29037513626	507
bin	1093.4054316907	311
bin	1405.5204882451	200
bin	1717.6355447996	159
bin	2029.750601354	99
bin	2341.8656579084	107
bin	2653.9807144629	117
bin	2966.0957710173	103
bin	3278.2108275717	66
bin	3590.3258841262	80
bin	3902.4409406806	107
bin	4214.555997235	57
bin	4526.6710537895	61
bin	4838.7861103439	39
bin	5150.9011668983	37
bin	5463.0162234528	38
bin	5775.1312800072	39
bin	6087.2463365616	32
bin	6399.3613931161	49
bin	6711.4764496705	34
bin	7023.5915062249	643
scalar scenarioPRJP1.node[48].lo0.lo 	droppedPkBitError:count 	0
attr interpolationmode  none
attr source  dropPkBitError
attr title  "packets dropped/bit error, count"
scalar scenarioPRJP1.node[48].lo0.lo 	droppedPkBitError:sum(packetBytes) 	0
attr interpolationmode  none
attr source  dropPkBitError
attr title  "packets dropped/bit error, sum(packetBytes)"
scalar scenarioPRJP1.node[48].lo0.lo 	rcvdPkFromHL:count 	16
attr interpolationmode  none
attr source  packetReceivedFromUpper
attr title  "packets received from higher layer, count"
scalar scenarioPRJP1.node[48].lo0.lo 	rcvdPkFromHL:sum(packetBytes) 	8320
attr interpolationmode  none
attr source  packetReceivedFromUpper
attr title  "packets received from higher layer, sum(packetBytes)"
scalar scenarioPRJP1.node[48].lo0.lo 	passedUpPk:count 	16
attr interpolationmode  none
attr source  packetSentToUpper
attr title  "packets passed to higher layer, count"
scalar scenarioPRJP1.node[48].lo0.lo 	passedUpPk:sum(packetBytes) 	8320
attr interpolationmode  none
attr source  packetSentToUpper
attr title  "packets passed to higher layer, sum(packetBytes)"
scalar scenarioPRJP1.node[32].app 	"Total sent" 	610
scalar scenarioPRJP1.node[32].app 	"Total received" 	27
scalar scenarioPRJP1.node[32].app 	"Total deleted" 	4
scalar scenarioPRJP1.node[32].app 	dropPk:count 	4
attr interpolationmode  none
attr source  dropPk
attr title  "packets dropped, count"
scalar scenarioPRJP1.node[32].app 	dropPk:sum(packetBytes) 	2048
attr interpolationmode  none
attr source  dropPk
attr title  "packets dropped, sum(packetBytes)"
scalar scenarioPRJP1.node[32].app 	outOfOrderPk:count 	3
attr interpolationmode  none
attr source  outOfOrderPk
attr title  "packets received out of order, count"
scalar scenarioPRJP1.node[32].app 	outOfOrderPk:sum(packetBytes) 	1536
attr interpolationmode  none
attr source  outOfOrderPk
attr title  "packets received out of order, sum(packetBytes)"
scalar scenarioPRJP1.node[32].app 	rcvdPk:count 	27
attr interpolationmode  none
attr source  rcvdPk
attr title  "packets received, count"
scalar scenarioPRJP1.node[32].app 	rcvdPk:sum(packetBytes) 	13824
attr interpolationmode  none
attr source  rcvdPk
attr title  "packets received, sum(packetBytes)"
statistic scenarioPRJP1.node[32].app 	endToEndDelay:histogram
field count 27
field mean 0.98501355068267
field stddev 2.2798602489284
field sum 26.595365868432
field sqrsum 161.33862738651
field min 0.001303335626
field max 8.567145297207
attr interpolationmode  none
attr source  messageAge(rcvdPk)
attr title  "delay, histogram"
attr unit  s
bin	-INF	0
bin	-4.2816176451645	0
bin	-3.7105615143924	0
bin	-3.1395053836204	0
bin	-2.5684492528483	0
bin	-1.9973931220762	0
bin	-1.4263369913042	0
bin	-0.8552808605321	0
bin	-0.28422472976003	20
bin	0.28683140101203	2
bin	0.8578875317841	1
bin	1.4289436625562	0
bin	1.9999997933282	1
bin	2.5710559241003	0
bin	3.1421120548724	0
bin	3.7131681856444	0
bin	4.2842243164165	0
bin	4.8552804471886	0
bin	5.4263365779606	1
bin	5.9973927087327	0
bin	6.5684488395048	1
bin	7.1395049702768	0
bin	7.7105611010489	0
bin	8.281617231821	1
bin	8.852673362593	0
bin	9.4237294933651	0
bin	9.9947856241372	0
bin	10.565841754909	0
bin	11.136897885681	0
bin	11.707954016453	0
bin	12.279010147225	0
bin	12.850066277998	0
scalar scenarioPRJP1.node[32].app 	sentPk:count 	610
attr interpolationmode  none
attr source  sentPk
attr title  "packets sent, count"
scalar scenarioPRJP1.node[32].app 	sentPk:sum(packetBytes) 	312320
attr interpolationmode  none
attr source  sentPk
attr title  "packets sent, sum(packetBytes)"
scalar scenarioPRJP1.node[32].udp 	droppedPkBadChecksum:count 	0
attr interpolationmode  none
attr title  "packets dropped (checksum error), count"
scalar scenarioPRJP1.node[32].udp 	droppedPkWrongPort:count 	0
attr interpolationmode  none
attr title  "packets dropped (wrong port), count"
scalar scenarioPRJP1.node[32].udp 	passedUpPk:count 	34
attr interpolationmode  none
attr title  "packets passed up, count"
scalar scenarioPRJP1.node[32].udp 	rcvdPk:count 	34
attr interpolationmode  none
attr source  rcvdPk
attr title  "packets received, count"
scalar scenarioPRJP1.node[32].udp 	rcvdPk:sum(packetBytes) 	17680
attr interpolationmode  none
attr source  rcvdPk
attr title  "packets received, sum(packetBytes)"
scalar scenarioPRJP1.node[32].udp 	sentPk:count 	610
attr interpolationmode  none
attr source  sentPk
attr title  "packets sent, count"
scalar scenarioPRJP1.node[32].udp 	sentPk:sum(packetBytes) 	317200
attr interpolationmode  none
attr source  sentPk
attr title  "packets sent, sum(packetBytes)"
scalar scenarioPRJP1.node[32].networkLayer.arp 	failedARPResolution:count 	7
attr title  "ARP failed resolutions, count"
scalar scenarioPRJP1.node[32].networkLayer.arp 	completedARPResolution:count 	266
attr title  "ARP completed resolutions, count"
scalar scenarioPRJP1.node[32].networkLayer.arp 	initiatedARPResolution:count 	25
attr title  "ARP initiated resolutions, count"
scalar scenarioPRJP1.node[32].networkLayer.arp 	sentReply:count 	24
attr title  "ARP replies sent, count"
scalar scenarioPRJP1.node[32].networkLayer.arp 	sentReq:count 	43
attr title  "ARP request sent, count"
scalar scenarioPRJP1.node[32].mobility 	startTime 	2.5
scalar scenarioPRJP1.node[32].mobility 	totalTime 	243.5
scalar scenarioPRJP1.node[32].mobility 	stopTime 	246.1
scalar scenarioPRJP1.node[32].mobility 	minSpeed 	2.4776545441163e-13
scalar scenarioPRJP1.node[32].mobility 	maxSpeed 	17.901949993794
scalar scenarioPRJP1.node[32].mobility 	totalDistance 	2233.3504805441
scalar scenarioPRJP1.node[32].mobility 	totalCO2Emission 	659.25878446464
scalar scenarioPRJP1.node[32].wlan.mgmt 	dataQueueLen:max 	9
attr interpolationmode  sample-hold
attr title  "data queue length, max"
scalar scenarioPRJP1.node[32].wlan.mgmt 	dataQueueLen:timeavg 	0.00042970989687192
attr interpolationmode  sample-hold
attr title  "data queue length, timeavg"
scalar scenarioPRJP1.node[32].wlan.mgmt 	dropPkByQueue:count 	0
attr interpolationmode  none
attr source  dropPkByQueue
attr title  "packets dropped by queue, count"
scalar scenarioPRJP1.node[32].wlan.mgmt 	dropPkByQueue:sum(packetBytes) 	0
attr interpolationmode  none
attr source  dropPkByQueue
attr title  "packets dropped by queue, sum(packetBytes)"
scalar scenarioPRJP1.node[32].wlan.mac 	"number of received packets" 	3420
scalar scenarioPRJP1.node[32].wlan.mac 	"number of collisions" 	29091
scalar scenarioPRJP1.node[32].wlan.mac 	"number of internal collisions" 	0
scalar scenarioPRJP1.node[32].wlan.mac 	"number of retry for AC 0" 	8619
scalar scenarioPRJP1.node[32].wlan.mac 	"number of retry for AC 1" 	0
scalar scenarioPRJP1.node[32].wlan.mac 	"number of retry for AC 2" 	0
scalar scenarioPRJP1.node[32].wlan.mac 	"number of retry for AC 3" 	0
scalar scenarioPRJP1.node[32].wlan.mac 	"sent and received bits" 	8623424
scalar scenarioPRJP1.node[32].wlan.mac 	"sent packet within AC 0" 	2085
scalar scenarioPRJP1.node[32].wlan.mac 	"sent packet within AC 1" 	0
scalar scenarioPRJP1.node[32].wlan.mac 	"sent packet within AC 2" 	0
scalar scenarioPRJP1.node[32].wlan.mac 	"sent packet within AC 3" 	0
scalar scenarioPRJP1.node[32].wlan.mac 	"sent in TXOP " 	0
scalar scenarioPRJP1.node[32].wlan.mac 	"sentWithoutRetry AC 0" 	1816
scalar scenarioPRJP1.node[32].wlan.mac 	"sentWithoutRetry AC 1" 	0
scalar scenarioPRJP1.node[32].wlan.mac 	"sentWithoutRetry AC 2" 	0
scalar scenarioPRJP1.node[32].wlan.mac 	"sentWithoutRetry AC 3" 	0
scalar scenarioPRJP1.node[32].wlan.mac 	"numGivenUp AC 0" 	1331
scalar scenarioPRJP1.node[32].wlan.mac 	"numGivenUp AC 1" 	0
scalar scenarioPRJP1.node[32].wlan.mac 	"numGivenUp AC 2" 	0
scalar scenarioPRJP1.node[32].wlan.mac 	"numGivenUp AC 3" 	0
scalar scenarioPRJP1.node[32].wlan.mac 	"numDropped AC 0" 	6
scalar scenarioPRJP1.node[32].wlan.mac 	"numDropped AC 1" 	0
scalar scenarioPRJP1.node[32].wlan.mac 	"numDropped AC 2" 	0
scalar scenarioPRJP1.node[32].wlan.mac 	"numDropped AC 3" 	0
scalar scenarioPRJP1.node[32].wlan.mac 	rcvdPkFromLL:count 	124410
attr interpolationmode  none
attr source  packetReceivedFromLower
attr title  "packets received from lower layer, count"
scalar scenarioPRJP1.node[32].wlan.mac 	rcvdPkFromLL:sum(packetBytes) 	25886328
attr interpolationmode  none
attr source  packetReceivedFromLower
attr title  "packets received from lower layer, sum(packetBytes)"
scalar scenarioPRJP1.node[32].wlan.mac 	sentDownPk:count 	22490
attr interpolationmode  none
attr source  packetSentToLower
attr title  "packets sent to lower layer, count"
scalar scenarioPRJP1.node[32].wlan.mac 	sentDownPk:sum(packetBytes) 	4679268
attr interpolationmode  none
attr source  packetSentToLower
attr title  "packets sent to lower layer, sum(packetBytes)"
scalar scenarioPRJP1.node[32].wlan.mac 	rcvdPkFromHL:count 	10457
attr interpolationmode  none
attr source  packetReceivedFromUpper
attr title  "packets received from higher layer, count"
scalar scenarioPRJP1.node[32].wlan.mac 	rcvdPkFromHL:sum(packetBytes) 	1548048
attr interpolationmode  none
attr source  packetReceivedFromUpper
attr title  "packets received from higher layer, sum(packetBytes)"
scalar scenarioPRJP1.node[32].wlan.mac 	passedUpPk:count 	29926
attr interpolationmode  none
attr source  packetSentToUpper
attr title  "packets passed to higher layer, count"
scalar scenarioPRJP1.node[32].wlan.mac 	passedUpPk:sum(packetBytes) 	2676112
attr interpolationmode  none
attr source  packetSentToUpper
attr title  "packets passed to higher layer, sum(packetBytes)"
statistic scenarioPRJP1.node[32].wlan.radio 	radioChannel:histogram
field count 1
field mean 3
field stddev -nan
field sum 3
field sqrsum 9
field min 3
field max 3
attr interpolationmode  sample-hold
attr source  radioChannelChanged
attr title  "Radio channel, histogram"
bin	-INF	0
bin	2	0
bin	3	1
bin	4	0
scalar scenarioPRJP1.node[32].wlan.radio 	transmissionState:count 	89960
attr interpolationmode  sample-hold
attr source  transmissionStateChanged
attr title  "Radio transmission state, count"
scalar scenarioPRJP1.node[32].wlan.radio 	receptionState:count 	300946
attr interpolationmode  sample-hold
attr source  receptionStateChanged
attr title  "Radio reception state, count"
scalar scenarioPRJP1.node[32].wlan.radio 	radioMode:count 	44982
attr interpolationmode  sample-hold
attr source  radioModeChanged
attr title  "Radio mode, count"
statistic scenarioPRJP1.node[32].wlan.radio 	symbolErrorRate:histogram
field count 0
field mean -nan
field stddev -nan
field sum 0
field sqrsum 0
field min -nan
field max -nan
attr source  symbolErrorRate
attr title  "Symbol error rate, histogram"
bin	-INF	0
bin	-0.5	0
bin	-0.46666666666667	0
bin	-0.43333333333333	0
bin	-0.4	0
bin	-0.36666666666667	0
bin	-0.33333333333333	0
bin	-0.3	0
bin	-0.26666666666667	0
bin	-0.23333333333333	0
bin	-0.2	0
bin	-0.16666666666667	0
bin	-0.13333333333333	0
bin	-0.1	0
bin	-0.066666666666667	0
bin	-0.033333333333333	0
bin	0	0
bin	0.033333333333333	0
bin	0.066666666666667	0
bin	0.1	0
bin	0.13333333333333	0
bin	0.16666666666667	0
bin	0.2	0
bin	0.23333333333333	0
bin	0.26666666666667	0
bin	0.3	0
bin	0.33333333333333	0
bin	0.36666666666667	0
bin	0.4	0
bin	0.43333333333333	0
bin	0.46666666666667	0
bin	0.5	0
statistic scenarioPRJP1.node[32].wlan.radio 	bitErrorRate:histogram
field count 0
field mean -nan
field stddev -nan
field sum 0
field sqrsum 0
field min -nan
field max -nan
attr source  bitErrorRate
attr title  "Bit error rate, histogram"
bin	-INF	0
bin	-0.5	0
bin	-0.46666666666667	0
bin	-0.43333333333333	0
bin	-0.4	0
bin	-0.36666666666667	0
bin	-0.33333333333333	0
bin	-0.3	0
bin	-0.26666666666667	0
bin	-0.23333333333333	0
bin	-0.2	0
bin	-0.16666666666667	0
bin	-0.13333333333333	0
bin	-0.1	0
bin	-0.066666666666667	0
bin	-0.033333333333333	0
bin	0	0
bin	0.033333333333333	0
bin	0.066666666666667	0
bin	0.1	0
bin	0.13333333333333	0
bin	0.16666666666667	0
bin	0.2	0
bin	0.23333333333333	0
bin	0.26666666666667	0
bin	0.3	0
bin	0.33333333333333	0
bin	0.36666666666667	0
bin	0.4	0
bin	0.43333333333333	0
bin	0.46666666666667	0
bin	0.5	0
statistic scenarioPRJP1.node[32].wlan.radio 	packetErrorRate:histogram
field count 124410
field mean 0.21275724470175
field stddev 0.39908436827635
field sum 26469.128813345
field sqrsum 25445.912956495
field min 0
field max 1
attr source  packetErrorRate
attr title  "Packet error rate, histogram"
bin	-INF	0
bin	-0.5	0
bin	-0.43333333333333	0
bin	-0.36666666666667	0
bin	-0.3	0
bin	-0.23333333333333	0
bin	-0.16666666666667	0
bin	-0.1	0
bin	-0.033333333333333	93686
bin	0.033333333333333	1767
bin	0.1	825
bin	0.16666666666667	563
bin	0.23333333333333	474
bin	0.3	373
bin	0.36666666666667	327
bin	0.43333333333333	289
bin	0.5	253
bin	0.56666666666667	246
bin	0.63333333333333	283
bin	0.7	249
bin	0.76666666666667	284
bin	0.83333333333333	391
bin	0.9	520
bin	0.96666666666667	23880
bin	1.0333333333333	0
bin	1.1	0
bin	1.1666666666667	0
bin	1.2333333333333	0
bin	1.3	0
bin	1.3666666666667	0
bin	1.4333333333333	0
bin	1.5	0
statistic scenarioPRJP1.node[32].wlan.radio 	minSNIR:histogram
field count 124410
field mean 1902.5707226506
field stddev 20563.081044389
field sum 236698823.60496
field sqrsum 53055475388134
field min 0.0001675825284415
field max 753239.71923443
attr source  minSNIR
attr title  "Min SNIR, histogram"
bin	-INF	0
bin	-88.461643218731	0
bin	-76.636925554251	0
bin	-64.812207889771	0
bin	-52.987490225291	0
bin	-41.16277256081	0
bin	-29.33805489633	0
bin	-17.51333723185	0
bin	-5.6886195673699	45587
bin	6.1360980971103	24251
bin	17.960815761591	7908
bin	29.785533426071	4039
bin	41.610251090551	2672
bin	53.434968755031	2005
bin	65.259686419511	1682
bin	77.084404083992	1389
bin	88.909121748472	1165
bin	100.73383941295	1006
bin	112.55855707743	858
bin	124.38327474191	844
bin	136.20799240639	726
bin	148.03271007087	612
bin	159.85742773535	589
bin	171.68214539983	547
bin	183.50686306431	554
bin	195.33158072879	414
bin	207.15629839327	413
bin	218.98101605775	355
bin	230.80573372223	326
bin	242.63045138671	350
bin	254.45516905119	302
bin	266.27988671567	25816
scalar scenarioPRJP1.node[32].lo0.lo 	droppedPkBitError:count 	0
attr interpolationmode  none
attr source  dropPkBitError
attr title  "packets dropped/bit error, count"
scalar scenarioPRJP1.node[32].lo0.lo 	droppedPkBitError:sum(packetBytes) 	0
attr interpolationmode  none
attr source  dropPkBitError
attr title  "packets dropped/bit error, sum(packetBytes)"
scalar scenarioPRJP1.node[32].lo0.lo 	rcvdPkFromHL:count 	34
attr interpolationmode  none
attr source  packetReceivedFromUpper
attr title  "packets received from higher layer, count"
scalar scenarioPRJP1.node[32].lo0.lo 	rcvdPkFromHL:sum(packetBytes) 	17680
attr interpolationmode  none
attr source  packetReceivedFromUpper
attr title  "packets received from higher layer, sum(packetBytes)"
scalar scenarioPRJP1.node[32].lo0.lo 	passedUpPk:count 	34
attr interpolationmode  none
attr source  packetSentToUpper
attr title  "packets passed to higher layer, count"
scalar scenarioPRJP1.node[32].lo0.lo 	passedUpPk:sum(packetBytes) 	17680
attr interpolationmode  none
attr source  packetSentToUpper
attr title  "packets passed to higher layer, sum(packetBytes)"
scalar scenarioPRJP1.node[93].app 	"Total sent" 	717
scalar scenarioPRJP1.node[93].app 	"Total received" 	44
scalar scenarioPRJP1.node[93].app 	"Total deleted" 	0
scalar scenarioPRJP1.node[93].app 	dropPk:count 	0
attr interpolationmode  none
attr source  dropPk
attr title  "packets dropped, count"
scalar scenarioPRJP1.node[93].app 	dropPk:sum(packetBytes) 	0
attr interpolationmode  none
attr source  dropPk
attr title  "packets dropped, sum(packetBytes)"
scalar scenarioPRJP1.node[93].app 	outOfOrderPk:count 	5
attr interpolationmode  none
attr source  outOfOrderPk
attr title  "packets received out of order, count"
scalar scenarioPRJP1.node[93].app 	outOfOrderPk:sum(packetBytes) 	2560
attr interpolationmode  none
attr source  outOfOrderPk
attr title  "packets received out of order, sum(packetBytes)"
scalar scenarioPRJP1.node[93].app 	rcvdPk:count 	44
attr interpolationmode  none
attr source  rcvdPk
attr title  "packets received, count"
scalar scenarioPRJP1.node[93].app 	rcvdPk:sum(packetBytes) 	22528
attr interpolationmode  none
attr source  rcvdPk
attr title  "packets received, sum(packetBytes)"
statistic scenarioPRJP1.node[93].app 	endToEndDelay:histogram
field count 44
field mean 0.94786811184743
field stddev 2.2188518789334
field sum 41.706196921287
field sqrsum 251.2340315359
field min 0.001560831175
field max 12.10222852118
attr interpolationmode  none
attr source  messageAge(rcvdPk)
attr title  "delay, histogram"
attr unit  s
bin	-INF	0
bin	-6.0487730138275	0
bin	-5.2420618344938	0
bin	-4.4353506551602	0
bin	-3.6286394758265	0
bin	-2.8219282964928	0
bin	-2.0152171171592	0
bin	-1.2085059378255	0
bin	-0.40179475849183	33
bin	0.40491642084183	4
bin	1.2116276001755	1
bin	2.0183387795092	0
bin	2.8250499588428	1
bin	3.6317611381765	2
bin	4.4384723175102	0
bin	5.2451834968438	2
bin	6.0518946761775	0
bin	6.8586058555112	0
bin	7.6653170348448	0
bin	8.4720282141785	0
bin	9.2787393935122	0
bin	10.085450572846	0
bin	10.892161752179	0
bin	11.698872931513	1
bin	12.505584110847	0
bin	13.31229529018	0
bin	14.119006469514	0
bin	14.925717648848	0
bin	15.732428828181	0
bin	16.539140007515	0
bin	17.345851186849	0
bin	18.152562366182	0
scalar scenarioPRJP1.node[93].app 	sentPk:count 	717
attr interpolationmode  none
attr source  sentPk
attr title  "packets sent, count"
scalar scenarioPRJP1.node[93].app 	sentPk:sum(packetBytes) 	367104
attr interpolationmode  none
attr source  sentPk
attr title  "packets sent, sum(packetBytes)"
scalar scenarioPRJP1.node[93].udp 	droppedPkBadChecksum:count 	0
attr interpolationmode  none
attr title  "packets dropped (checksum error), count"
scalar scenarioPRJP1.node[93].udp 	droppedPkWrongPort:count 	0
attr interpolationmode  none
attr title  "packets dropped (wrong port), count"
scalar scenarioPRJP1.node[93].udp 	passedUpPk:count 	49
attr interpolationmode  none
attr title  "packets passed up, count"
scalar scenarioPRJP1.node[93].udp 	rcvdPk:count 	49
attr interpolationmode  none
attr source  rcvdPk
attr title  "packets received, count"
scalar scenarioPRJP1.node[93].udp 	rcvdPk:sum(packetBytes) 	25480
attr interpolationmode  none
attr source  rcvdPk
attr title  "packets received, sum(packetBytes)"
scalar scenarioPRJP1.node[93].udp 	sentPk:count 	717
attr interpolationmode  none
attr source  sentPk
attr title  "packets sent, count"
scalar scenarioPRJP1.node[93].udp 	sentPk:sum(packetBytes) 	372840
attr interpolationmode  none
attr source  sentPk
attr title  "packets sent, sum(packetBytes)"
scalar scenarioPRJP1.node[93].networkLayer.arp 	failedARPResolution:count 	12
attr title  "ARP failed resolutions, count"
scalar scenarioPRJP1.node[93].networkLayer.arp 	completedARPResolution:count 	315
attr title  "ARP completed resolutions, count"
scalar scenarioPRJP1.node[93].networkLayer.arp 	initiatedARPResolution:count 	45
attr title  "ARP initiated resolutions, count"
scalar scenarioPRJP1.node[93].networkLayer.arp 	sentReply:count 	16
attr title  "ARP replies sent, count"
scalar scenarioPRJP1.node[93].networkLayer.arp 	sentReq:count 	95
attr title  "ARP request sent, count"
scalar scenarioPRJP1.node[93].mobility 	startTime 	9.8
scalar scenarioPRJP1.node[93].mobility 	totalTime 	271.8
scalar scenarioPRJP1.node[93].mobility 	stopTime 	281.7
scalar scenarioPRJP1.node[93].mobility 	minSpeed 	2.476066142698e-13
scalar scenarioPRJP1.node[93].mobility 	maxSpeed 	19.963690730672
scalar scenarioPRJP1.node[93].mobility 	totalDistance 	2203.8746882799
scalar scenarioPRJP1.node[93].mobility 	totalCO2Emission 	743.39413936203
scalar scenarioPRJP1.node[93].wlan.mgmt 	dataQueueLen:max 	35
attr interpolationmode  sample-hold
attr title  "data queue length, max"
scalar scenarioPRJP1.node[93].wlan.mgmt 	dataQueueLen:timeavg 	0.22505374729454
attr interpolationmode  sample-hold
attr title  "data queue length, timeavg"
scalar scenarioPRJP1.node[93].wlan.mgmt 	dropPkByQueue:count 	0
attr interpolationmode  none
attr source  dropPkByQueue
attr title  "packets dropped by queue, count"
scalar scenarioPRJP1.node[93].wlan.mgmt 	dropPkByQueue:sum(packetBytes) 	0
attr interpolationmode  none
attr source  dropPkByQueue
attr title  "packets dropped by queue, sum(packetBytes)"
scalar scenarioPRJP1.node[93].wlan.mac 	"number of received packets" 	3654
scalar scenarioPRJP1.node[93].wlan.mac 	"number of collisions" 	40782
scalar scenarioPRJP1.node[93].wlan.mac 	"number of internal collisions" 	0
scalar scenarioPRJP1.node[93].wlan.mac 	"number of retry for AC 0" 	7636
scalar scenarioPRJP1.node[93].wlan.mac 	"number of retry for AC 1" 	0
scalar scenarioPRJP1.node[93].wlan.mac 	"number of retry for AC 2" 	0
scalar scenarioPRJP1.node[93].wlan.mac 	"number of retry for AC 3" 	0
scalar scenarioPRJP1.node[93].wlan.mac 	"sent and received bits" 	9615328
scalar scenarioPRJP1.node[93].wlan.mac 	"sent packet within AC 0" 	2415
scalar scenarioPRJP1.node[93].wlan.mac 	"sent packet within AC 1" 	0
scalar scenarioPRJP1.node[93].wlan.mac 	"sent packet within AC 2" 	0
scalar scenarioPRJP1.node[93].wlan.mac 	"sent packet within AC 3" 	0
scalar scenarioPRJP1.node[93].wlan.mac 	"sent in TXOP " 	0
scalar scenarioPRJP1.node[93].wlan.mac 	"sentWithoutRetry AC 0" 	2119
scalar scenarioPRJP1.node[93].wlan.mac 	"sentWithoutRetry AC 1" 	0
scalar scenarioPRJP1.node[93].wlan.mac 	"sentWithoutRetry AC 2" 	0
scalar scenarioPRJP1.node[93].wlan.mac 	"sentWithoutRetry AC 3" 	0
scalar scenarioPRJP1.node[93].wlan.mac 	"numGivenUp AC 0" 	1170
scalar scenarioPRJP1.node[93].wlan.mac 	"numGivenUp AC 1" 	0
scalar scenarioPRJP1.node[93].wlan.mac 	"numGivenUp AC 2" 	0
scalar scenarioPRJP1.node[93].wlan.mac 	"numGivenUp AC 3" 	0
scalar scenarioPRJP1.node[93].wlan.mac 	"numDropped AC 0" 	165
scalar scenarioPRJP1.node[93].wlan.mac 	"numDropped AC 1" 	0
scalar scenarioPRJP1.node[93].wlan.mac 	"numDropped AC 2" 	0
scalar scenarioPRJP1.node[93].wlan.mac 	"numDropped AC 3" 	0
scalar scenarioPRJP1.node[93].wlan.mac 	rcvdPkFromLL:count 	158760
attr interpolationmode  none
attr source  packetReceivedFromLower
attr title  "packets received from lower layer, count"
scalar scenarioPRJP1.node[93].wlan.mac 	rcvdPkFromLL:sum(packetBytes) 	35472858
attr interpolationmode  none
attr source  packetReceivedFromLower
attr title  "packets received from lower layer, sum(packetBytes)"
scalar scenarioPRJP1.node[93].wlan.mac 	sentDownPk:count 	21710
attr interpolationmode  none
attr source  packetSentToLower
attr title  "packets sent to lower layer, count"
scalar scenarioPRJP1.node[93].wlan.mac 	sentDownPk:sum(packetBytes) 	4101352
attr interpolationmode  none
attr source  packetSentToLower
attr title  "packets sent to lower layer, sum(packetBytes)"
scalar scenarioPRJP1.node[93].wlan.mac 	rcvdPkFromHL:count 	10585
attr interpolationmode  none
attr source  packetReceivedFromUpper
attr title  "packets received from higher layer, count"
scalar scenarioPRJP1.node[93].wlan.mac 	rcvdPkFromHL:sum(packetBytes) 	1607968
attr interpolationmode  none
attr source  packetReceivedFromUpper
attr title  "packets received from higher layer, sum(packetBytes)"
scalar scenarioPRJP1.node[93].wlan.mac 	passedUpPk:count 	30265
attr interpolationmode  none
attr source  packetSentToUpper
attr title  "packets passed to higher layer, count"
scalar scenarioPRJP1.node[93].wlan.mac 	passedUpPk:sum(packetBytes) 	2643820
attr interpolationmode  none
attr source  packetSentToUpper
attr title  "packets passed to higher layer, sum(packetBytes)"
statistic scenarioPRJP1.node[93].wlan.radio 	radioChannel:histogram
field count 1
field mean 3
field stddev -nan
field sum 3
field sqrsum 9
field min 3
field max 3
attr interpolationmode  sample-hold
attr source  radioChannelChanged
attr title  "Radio channel, histogram"
bin	-INF	0
bin	2	0
bin	3	1
bin	4	0
scalar scenarioPRJP1.node[93].wlan.radio 	transmissionState:count 	86840
attr interpolationmode  sample-hold
attr source  transmissionStateChanged
attr title  "Radio transmission state, count"
scalar scenarioPRJP1.node[93].wlan.radio 	receptionState:count 	377412
attr interpolationmode  sample-hold
attr source  receptionStateChanged
attr title  "Radio reception state, count"
scalar scenarioPRJP1.node[93].wlan.radio 	radioMode:count 	43422
attr interpolationmode  sample-hold
attr source  radioModeChanged
attr title  "Radio mode, count"
statistic scenarioPRJP1.node[93].wlan.radio 	symbolErrorRate:histogram
field count 0
field mean -nan
field stddev -nan
field sum 0
field sqrsum 0
field min -nan
field max -nan
attr source  symbolErrorRate
[...]
attr interpolationmode  none
attr source  packetSentToUpper
attr title  "packets passed to higher layer, count"
scalar scenarioPRJP1.node[72].wlan.mac 	passedUpPk:sum(packetBytes) 	4784072
attr interpolationmode  none
attr source  packetSentToUpper
attr title  "packets passed to higher layer, sum(packetBytes)"
statistic scenarioPRJP1.node[72].wlan.radio 	radioChannel:histogram
field count 1
field mean 3
field stddev -nan
field sum 3
field sqrsum 9
field min 3
field max 3
attr interpolationmode  sample-hold
attr source  radioChannelChanged
attr title  "Radio channel, histogram"
bin	-INF	0
bin	2	0
bin	3	1
bin	4	0
scalar scenarioPRJP1.node[72].wlan.radio 	transmissionState:count 	208584
attr interpolationmode  sample-hold
attr source  transmissionStateChanged
attr title  "Radio transmission state, count"
scalar scenarioPRJP1.node[72].wlan.radio 	receptionState:count 	678006
attr interpolationmode  sample-hold
attr source  receptionStateChanged
attr title  "Radio reception state, count"
scalar scenarioPRJP1.node[72].wlan.radio 	radioMode:count 	104294
attr interpolationmode  sample-hold
attr source  radioModeChanged
attr title  "Radio mode, count"
statistic scenarioPRJP1.node[72].wlan.radio 	symbolErrorRate:histogram
field count 0
field mean -nan
field stddev -nan
field sum 0
field sqrsum 0
field min -nan
field max -nan
attr source  symbolErrorRate
attr title  "Symbol error rate, histogram"
bin	-INF	0
bin	-0.5	0
bin	-0.46666666666667	0
bin	-0.43333333333333	0
bin	-0.4	0
bin	-0.36666666666667	0
bin	-0.33333333333333	0
bin	-0.3	0
bin	-0.26666666666667	0
bin	-0.23333333333333	0
bin	-0.2	0
bin	-0.16666666666667	0
bin	-0.13333333333333	0
bin	-0.1	0
bin	-0.066666666666667	0
bin	-0.033333333333333	0
bin	0	0
bin	0.033333333333333	0
bin	0.066666666666667	0
bin	0.1	0
bin	0.13333333333333	0
bin	0.16666666666667	0
bin	0.2	0
bin	0.23333333333333	0
bin	0.26666666666667	0
bin	0.3	0
bin	0.33333333333333	0
bin	0.36666666666667	0
bin	0.4	0
bin	0.43333333333333	0
bin	0.46666666666667	0
bin	0.5	0
statistic scenarioPRJP1.node[72].wlan.radio 	bitErrorRate:histogram
field count 0
field mean -nan
field stddev -nan
field sum 0
field sqrsum 0
field min -nan
field max -nan
attr source  bitErrorRate
attr title  "Bit error rate, histogram"
bin	-INF	0
bin	-0.5	0
bin	-0.46666666666667	0
bin	-0.43333333333333	0
bin	-0.4	0
bin	-0.36666666666667	0
bin	-0.33333333333333	0
bin	-0.3	0
bin	-0.26666666666667	0
bin	-0.23333333333333	0
bin	-0.2	0
bin	-0.16666666666667	0
bin	-0.13333333333333	0
bin	-0.1	0
bin	-0.066666666666667	0
bin	-0.033333333333333	0
bin	0	0
bin	0.033333333333333	0
bin	0.066666666666667	0
bin	0.1	0
bin	0.13333333333333	0
bin	0.16666666666667	0
bin	0.2	0
bin	0.23333333333333	0
bin	0.26666666666667	0
bin	0.3	0
bin	0.33333333333333	0
bin	0.36666666666667	0
bin	0.4	0
bin	0.43333333333333	0
bin	0.46666666666667	0
bin	0.5	0
statistic scenarioPRJP1.node[72].wlan.radio 	packetErrorRate:histogram
field count 272298
field mean 0.23493690382598
field stddev 0.41452086270226
field sum 63972.849038007
field sqrsum 61817.70827036
field min 0
field max 1
attr source  packetErrorRate
attr title  "Packet error rate, histogram"
bin	-INF	0
bin	-0.5	0
bin	-0.43333333333333	0
bin	-0.36666666666667	0
bin	-0.3	0
bin	-0.23333333333333	0
bin	-0.16666666666667	0
bin	-0.1	0
bin	-0.033333333333333	199468
bin	0.033333333333333	3584
bin	0.1	1722
bin	0.16666666666667	1254
bin	0.23333333333333	945
bin	0.3	778
bin	0.36666666666667	680
bin	0.43333333333333	597
bin	0.5	597
bin	0.56666666666667	556
bin	0.63333333333333	581
bin	0.7	598
bin	0.76666666666667	604
bin	0.83333333333333	686
bin	0.9	1104
bin	0.96666666666667	58544
bin	1.0333333333333	0
bin	1.1	0
bin	1.1666666666667	0
bin	1.2333333333333	0
bin	1.3	0
bin	1.3666666666667	0
bin	1.4333333333333	0
bin	1.5	0
statistic scenarioPRJP1.node[72].wlan.radio 	minSNIR:histogram
field count 272298
field mean 2572.3285413753
field stddev 33139.262369014
field sum 700439917.1594
field sqrsum 3.0084124338997e+14
field min 0.00016970470356919
field max 4890191.6563744
attr source  minSNIR
attr title  "Min SNIR, histogram"
bin	-INF	0
bin	-7593.3292156523	0
bin	-6580.7253772719	0
bin	-5568.1215388915	0
bin	-4555.5177005111	0
bin	-3542.9138621307	0
bin	-2530.3100237503	0
bin	-1517.7061853699	0
bin	-505.10234698955	235684
bin	507.50149139085	13998
bin	1520.1053297712	4487
bin	2532.7091681516	3079
bin	3545.313006532	2419
bin	4557.9168449124	1823
bin	5570.5206832928	1245
bin	6583.1245216732	965
bin	7595.7283600536	880
bin	8608.332198434	631
bin	9620.9360368144	565
bin	10633.539875195	405
bin	11646.143713575	308
bin	12658.747551956	716
bin	13671.351390336	325
bin	14683.955228716	206
bin	15696.559067097	197
bin	16709.162905477	157
bin	17721.766743858	174
bin	18734.370582238	157
bin	19746.974420618	105
bin	20759.578258999	143
bin	21772.182097379	196
bin	22784.78593576	3433
scalar scenarioPRJP1.node[72].lo0.lo 	droppedPkBitError:count 	0
attr interpolationmode  none
attr source  dropPkBitError
attr title  "packets dropped/bit error, count"
scalar scenarioPRJP1.node[72].lo0.lo 	droppedPkBitError:sum(packetBytes) 	0
attr interpolationmode  none
attr source  dropPkBitError
attr title  "packets dropped/bit error, sum(packetBytes)"
scalar scenarioPRJP1.node[72].lo0.lo 	rcvdPkFromHL:count 	105
attr interpolationmode  none
attr source  packetReceivedFromUpper
attr title  "packets received from higher layer, count"
scalar scenarioPRJP1.node[72].lo0.lo 	rcvdPkFromHL:sum(packetBytes) 	54600
attr interpolationmode  none
attr source  packetReceivedFromUpper
attr title  "packets received from higher layer, sum(packetBytes)"
scalar scenarioPRJP1.node[72].lo0.lo 	passedUpPk:count 	105
attr interpolationmode  none
attr source  packetSentToUpper
attr title  "packets passed to higher layer, count"
scalar scenarioPRJP1.node[72].lo0.lo 	passedUpPk:sum(packetBytes) 	54600
attr interpolationmode  none
attr source  packetSentToUpper
attr title  "packets passed to higher layer, sum(packetBytes)"
scalar scenarioPRJP1.node[88].app 	"Total sent" 	2608
scalar scenarioPRJP1.node[88].app 	"Total received" 	106
scalar scenarioPRJP1.node[88].app 	"Total deleted" 	4
scalar scenarioPRJP1.node[88].app 	dropPk:count 	4
attr interpolationmode  none
attr source  dropPk
attr title  "packets dropped, count"
scalar scenarioPRJP1.node[88].app 	dropPk:sum(packetBytes) 	2048
attr interpolationmode  none
attr source  dropPk
attr title  "packets dropped, sum(packetBytes)"
scalar scenarioPRJP1.node[88].app 	outOfOrderPk:count 	5
attr interpolationmode  none
attr source  outOfOrderPk
attr title  "packets received out of order, count"
scalar scenarioPRJP1.node[88].app 	outOfOrderPk:sum(packetBytes) 	2560
attr interpolationmode  none
attr source  outOfOrderPk
attr title  "packets received out of order, sum(packetBytes)"
scalar scenarioPRJP1.node[88].app 	rcvdPk:count 	106
attr interpolationmode  none
attr source  rcvdPk
attr title  "packets received, count"
scalar scenarioPRJP1.node[88].app 	rcvdPk:sum(packetBytes) 	54272
attr interpolationmode  none
attr source  rcvdPk
attr title  "packets received, sum(packetBytes)"
statistic scenarioPRJP1.node[88].app 	endToEndDelay:histogram
field count 106
field mean 1.2189008188758
field stddev 3.3545026888311
field sum 129.20348680084
field sqrsum 1339.0185062475
field min 0.000964096125
field max 19.19572868599
attr interpolationmode  none
attr source  messageAge(rcvdPk)
attr title  "delay, histogram"
attr unit  s
bin	-INF	0
bin	-9.5964181988075	0
bin	-8.3167672261498	0
bin	-7.0371162534922	0
bin	-5.7574652808345	0
bin	-4.4778143081768	0
bin	-3.1981633355192	0
bin	-1.9185123628615	0
bin	-0.63886139020383	81
bin	0.64078958245383	9
bin	1.9204405551115	7
bin	3.2000915277692	1
bin	4.4797425004268	1
bin	5.7593934730845	0
bin	7.0390444457422	2
bin	8.3186954183998	0
bin	9.5983463910575	2
bin	10.877997363715	0
bin	12.157648336373	0
bin	13.43729930903	0
bin	14.716950281688	0
bin	15.996601254346	2
bin	17.276252227003	0
bin	18.555903199661	1
bin	19.835554172319	0
bin	21.115205144976	0
bin	22.394856117634	0
bin	23.674507090292	0
bin	24.95415806295	0
bin	26.233809035607	0
bin	27.513460008265	0
bin	28.793110980922	0
scalar scenarioPRJP1.node[88].app 	sentPk:count 	2608
attr interpolationmode  none
attr source  sentPk
attr title  "packets sent, count"
scalar scenarioPRJP1.node[88].app 	sentPk:sum(packetBytes) 	1335296
attr interpolationmode  none
attr source  sentPk
attr title  "packets sent, sum(packetBytes)"
scalar scenarioPRJP1.node[88].udp 	droppedPkBadChecksum:count 	0
attr interpolationmode  none
attr title  "packets dropped (checksum error), count"
scalar scenarioPRJP1.node[88].udp 	droppedPkWrongPort:count 	0
attr interpolationmode  none
attr title  "packets dropped (wrong port), count"
scalar scenarioPRJP1.node[88].udp 	passedUpPk:count 	115
attr interpolationmode  none
attr title  "packets passed up, count"
scalar scenarioPRJP1.node[88].udp 	rcvdPk:count 	115
attr interpolationmode  none
attr source  rcvdPk
attr title  "packets received, count"
scalar scenarioPRJP1.node[88].udp 	rcvdPk:sum(packetBytes) 	59800
attr interpolationmode  none
attr source  rcvdPk
attr title  "packets received, sum(packetBytes)"
scalar scenarioPRJP1.node[88].udp 	sentPk:count 	2608
attr interpolationmode  none
attr source  sentPk
attr title  "packets sent, count"
scalar scenarioPRJP1.node[88].udp 	sentPk:sum(packetBytes) 	1356160
attr interpolationmode  none
attr source  sentPk
attr title  "packets sent, sum(packetBytes)"
scalar scenarioPRJP1.node[88].networkLayer.arp 	failedARPResolution:count 	101
attr title  "ARP failed resolutions, count"
scalar scenarioPRJP1.node[88].networkLayer.arp 	completedARPResolution:count 	1643
attr title  "ARP completed resolutions, count"
scalar scenarioPRJP1.node[88].networkLayer.arp 	initiatedARPResolution:count 	188
attr title  "ARP initiated resolutions, count"
scalar scenarioPRJP1.node[88].networkLayer.arp 	sentReply:count 	50
attr title  "ARP replies sent, count"
scalar scenarioPRJP1.node[88].networkLayer.arp 	sentReq:count 	435
attr title  "ARP request sent, count"
scalar scenarioPRJP1.node[88].mobility 	startTime 	9.7
scalar scenarioPRJP1.node[88].mobility 	totalTime 	940.3
scalar scenarioPRJP1.node[88].mobility 	stopTime 	950
scalar scenarioPRJP1.node[88].mobility 	minSpeed 	2.4754468163118e-13
scalar scenarioPRJP1.node[88].mobility 	maxSpeed 	18.166075980265
scalar scenarioPRJP1.node[88].mobility 	totalDistance 	8850.6409706159
scalar scenarioPRJP1.node[88].mobility 	totalCO2Emission 	2475.9157184792
scalar scenarioPRJP1.node[88].wlan.mgmt 	dataQueueLen:max 	47
attr interpolationmode  sample-hold
attr title  "data queue length, max"
scalar scenarioPRJP1.node[88].wlan.mgmt 	dataQueueLen:timeavg 	0.044442402537366
attr interpolationmode  sample-hold
attr title  "data queue length, timeavg"
scalar scenarioPRJP1.node[88].wlan.mgmt 	dropPkByQueue:count 	0
attr interpolationmode  none
attr source  dropPkByQueue
attr title  "packets dropped by queue, count"
scalar scenarioPRJP1.node[88].wlan.mgmt 	dropPkByQueue:sum(packetBytes) 	0
attr interpolationmode  none
attr source  dropPkByQueue
attr title  "packets dropped by queue, sum(packetBytes)"
scalar scenarioPRJP1.node[88].wlan.mac 	"number of received packets" 	9314
scalar scenarioPRJP1.node[88].wlan.mac 	"number of collisions" 	80727
scalar scenarioPRJP1.node[88].wlan.mac 	"number of internal collisions" 	0
scalar scenarioPRJP1.node[88].wlan.mac 	"number of retry for AC 0" 	28076
scalar scenarioPRJP1.node[88].wlan.mac 	"number of retry for AC 1" 	0
scalar scenarioPRJP1.node[88].wlan.mac 	"number of retry for AC 2" 	0
scalar scenarioPRJP1.node[88].wlan.mac 	"number of retry for AC 3" 	0
scalar scenarioPRJP1.node[88].wlan.mac 	"sent and received bits" 	17215776
scalar scenarioPRJP1.node[88].wlan.mac 	"sent packet within AC 0" 	3483
scalar scenarioPRJP1.node[88].wlan.mac 	"sent packet within AC 1" 	0
scalar scenarioPRJP1.node[88].wlan.mac 	"sent packet within AC 2" 	0
scalar scenarioPRJP1.node[88].wlan.mac 	"sent packet within AC 3" 	0
scalar scenarioPRJP1.node[88].wlan.mac 	"sent in TXOP " 	0
scalar scenarioPRJP1.node[88].wlan.mac 	"sentWithoutRetry AC 0" 	2953
scalar scenarioPRJP1.node[88].wlan.mac 	"sentWithoutRetry AC 1" 	0
scalar scenarioPRJP1.node[88].wlan.mac 	"sentWithoutRetry AC 2" 	0
scalar scenarioPRJP1.node[88].wlan.mac 	"sentWithoutRetry AC 3" 	0
scalar scenarioPRJP1.node[88].wlan.mac 	"numGivenUp AC 0" 	4460
scalar scenarioPRJP1.node[88].wlan.mac 	"numGivenUp AC 1" 	0
scalar scenarioPRJP1.node[88].wlan.mac 	"numGivenUp AC 2" 	0
scalar scenarioPRJP1.node[88].wlan.mac 	"numGivenUp AC 3" 	0
scalar scenarioPRJP1.node[88].wlan.mac 	"numDropped AC 0" 	211
scalar scenarioPRJP1.node[88].wlan.mac 	"numDropped AC 1" 	0
scalar scenarioPRJP1.node[88].wlan.mac 	"numDropped AC 2" 	0
scalar scenarioPRJP1.node[88].wlan.mac 	"numDropped AC 3" 	0
scalar scenarioPRJP1.node[88].wlan.mac 	rcvdPkFromLL:count 	281622
attr interpolationmode  none
attr source  packetReceivedFromLower
attr title  "packets received from lower layer, count"
scalar scenarioPRJP1.node[88].wlan.mac 	rcvdPkFromLL:sum(packetBytes) 	73394214
attr interpolationmode  none
attr source  packetReceivedFromLower
attr title  "packets received from lower layer, sum(packetBytes)"
scalar scenarioPRJP1.node[88].wlan.mac 	sentDownPk:count 	59558
attr interpolationmode  none
attr source  packetSentToLower
attr title  "packets sent to lower layer, count"
scalar scenarioPRJP1.node[88].wlan.mac 	sentDownPk:sum(packetBytes) 	15548492
attr interpolationmode  none
attr source  packetSentToLower
attr title  "packets sent to lower layer, sum(packetBytes)"
scalar scenarioPRJP1.node[88].wlan.mac 	rcvdPkFromHL:count 	22379
attr interpolationmode  none
attr source  packetReceivedFromUpper
attr title  "packets received from higher layer, count"
scalar scenarioPRJP1.node[88].wlan.mac 	rcvdPkFromHL:sum(packetBytes) 	4007284
attr interpolationmode  none
attr source  packetReceivedFromUpper
attr title  "packets received from higher layer, sum(packetBytes)"
scalar scenarioPRJP1.node[88].wlan.mac 	passedUpPk:count 	48772
attr interpolationmode  none
attr source  packetSentToUpper
attr title  "packets passed to higher layer, count"
scalar scenarioPRJP1.node[88].wlan.mac 	passedUpPk:sum(packetBytes) 	4673744
attr interpolationmode  none
attr source  packetSentToUpper
attr title  "packets passed to higher layer, sum(packetBytes)"
statistic scenarioPRJP1.node[88].wlan.radio 	radioChannel:histogram
field count 1
field mean 3
field stddev -nan
field sum 3
field sqrsum 9
field min 3
field max 3
attr interpolationmode  sample-hold
attr source  radioChannelChanged
attr title  "Radio channel, histogram"
bin	-INF	0
bin	2	0
bin	3	1
bin	4	0
scalar scenarioPRJP1.node[88].wlan.radio 	transmissionState:count 	238232
attr interpolationmode  sample-hold
attr source  transmissionStateChanged
attr title  "Radio transmission state, count"
scalar scenarioPRJP1.node[88].wlan.radio 	receptionState:count 	719383
attr interpolationmode  sample-hold
attr source  receptionStateChanged
attr title  "Radio reception state, count"
scalar scenarioPRJP1.node[88].wlan.radio 	radioMode:count 	119118
attr interpolationmode  sample-hold
attr source  radioModeChanged
attr title  "Radio mode, count"
statistic scenarioPRJP1.node[88].wlan.radio 	symbolErrorRate:histogram
field count 0
field mean -nan
field stddev -nan
field sum 0
field sqrsum 0
field min -nan
field max -nan
attr source  symbolErrorRate
attr title  "Symbol error rate, histogram"
bin	-INF	0
bin	-0.5	0
bin	-0.46666666666667	0
bin	-0.43333333333333	0
bin	-0.4	0
bin	-0.36666666666667	0
bin	-0.33333333333333	0
bin	-0.3	0
bin	-0.26666666666667	0
bin	-0.23333333333333	0
bin	-0.2	0
bin	-0.16666666666667	0
bin	-0.13333333333333	0
bin	-0.1	0
bin	-0.066666666666667	0
bin	-0.033333333333333	0
bin	0	0
bin	0.033333333333333	0
bin	0.066666666666667	0
bin	0.1	0
bin	0.13333333333333	0
bin	0.16666666666667	0
bin	0.2	0
bin	0.23333333333333	0
bin	0.26666666666667	0
bin	0.3	0
bin	0.33333333333333	0
bin	0.36666666666667	0
bin	0.4	0
bin	0.43333333333333	0
bin	0.46666666666667	0
bin	0.5	0
statistic scenarioPRJP1.node[88].wlan.radio 	bitErrorRate:histogram
field count 0
field mean -nan
field stddev -nan
field sum 0
field sqrsum 0
field min -nan
field max -nan
attr source  bitErrorRate
attr title  "Bit error rate, histogram"
bin	-INF	0
bin	-0.5	0
bin	-0.46666666666667	0
bin	-0.43333333333333	0
bin	-0.4	0
bin	-0.36666666666667	0
bin	-0.33333333333333	0
bin	-0.3	0
bin	-0.26666666666667	0
bin	-0.23333333333333	0
bin	-0.2	0
bin	-0.16666666666667	0
bin	-0.13333333333333	0
bin	-0.1	0
bin	-0.066666666666667	0
bin	-0.033333333333333	0
bin	0	0
bin	0.033333333333333	0
bin	0.066666666666667	0
bin	0.1	0
bin	0.13333333333333	0
bin	0.16666666666667	0
bin	0.2	0
bin	0.23333333333333	0
bin	0.26666666666667	0
bin	0.3	0
bin	0.33333333333333	0
bin	0.36666666666667	0
bin	0.4	0
bin	0.43333333333333	0
bin	0.46666666666667	0
bin	0.5	0
statistic scenarioPRJP1.node[88].wlan.radio 	packetErrorRate:histogram
field count 281622
field mean 0.26596394881307
field stddev 0.43168861786188
field sum 74901.299192633
field sqrsum 72402.544442906
field min 0
field max 1
attr source  packetErrorRate
attr title  "Packet error rate, histogram"
bin	-INF	0
bin	-0.5	0
bin	-0.43333333333333	0
bin	-0.36666666666667	0
bin	-0.3	0
bin	-0.23333333333333	0
bin	-0.16666666666667	0
bin	-0.1	0
bin	-0.033333333333333	196463
bin	0.033333333333333	4171
bin	0.1	2007
bin	0.16666666666667	1396
bin	0.23333333333333	1116
bin	0.3	883
bin	0.36666666666667	804
bin	0.43333333333333	684
bin	0.5	662
bin	0.56666666666667	662
bin	0.63333333333333	653
bin	0.7	674
bin	0.76666666666667	721
bin	0.83333333333333	863
bin	0.9	1341
bin	0.96666666666667	68522
bin	1.0333333333333	0
bin	1.1	0
bin	1.1666666666667	0
bin	1.2333333333333	0
bin	1.3	0
bin	1.3666666666667	0
bin	1.4333333333333	0
bin	1.5	0
statistic scenarioPRJP1.node[88].wlan.radio 	minSNIR:histogram
field count 281622
field mean 2805.8227059048
field stddev 34914.795728522
field sum 790181402.08232
field sqrsum 3.4552520657317e+14
field min 0.00017902331575326
field max 753239.71923443
attr source  minSNIR
attr title  "Min SNIR, histogram"
bin	-INF	0
bin	-1373.9277098018	0
bin	-1190.6169998384	0
bin	-1007.306289875	0
bin	-823.99557991155	0
bin	-640.68486994814	0
bin	-457.37415998472	0
bin	-274.06345002131	0
bin	-90.752740057895	211921
bin	92.557969905519	27285
bin	275.86867986893	9348
bin	459.17938983235	5171
bin	642.49009979576	3102
bin	825.80080975917	2160
bin	1009.1115197226	1793
bin	1192.422229686	1250
bin	1375.7329396494	1119
bin	1559.0436496128	919
bin	1742.3543595762	658
bin	1925.6650695397	635
bin	2108.9757795031	600
bin	2292.2864894665	518
bin	2475.5971994299	561
bin	2658.9079093933	497
bin	2842.2186193567	414
bin	3025.5293293201	491
bin	3208.8400392836	426
bin	3392.150749247	372
bin	3575.4614592104	374
bin	3758.7721691738	308
bin	3942.0828791372	268
bin	4125.3935891006	11432
scalar scenarioPRJP1.node[88].lo0.lo 	droppedPkBitError:count 	0
attr interpolationmode  none
attr source  dropPkBitError
attr title  "packets dropped/bit error, count"
scalar scenarioPRJP1.node[88].lo0.lo 	droppedPkBitError:sum(packetBytes) 	0
attr interpolationmode  none
attr source  dropPkBitError
attr title  "packets dropped/bit error, sum(packetBytes)"
scalar scenarioPRJP1.node[88].lo0.lo 	rcvdPkFromHL:count 	115
attr interpolationmode  none
attr source  packetReceivedFromUpper
attr title  "packets received from higher layer, count"
scalar scenarioPRJP1.node[88].lo0.lo 	rcvdPkFromHL:sum(packetBytes) 	59800
attr interpolationmode  none
attr source  packetReceivedFromUpper
attr title  "packets received from higher layer, sum(packetBytes)"
scalar scenarioPRJP1.node[88].lo0.lo 	passedUpPk:count 	115
attr interpolationmode  none
attr source  packetSentToUpper
attr title  "packets passed to higher layer, count"
scalar scenarioPRJP1.node[88].lo0.lo 	passedUpPk:sum(packetBytes) 	59800
attr interpolationmode  none
attr source  packetSentToUpper
attr title  "packets passed to higher layer, sum(packetBytes)"
