version 2
run DSRUU-FS-100n-10-20150820-21:03:28-3360
attr configname DSRUU-FS-100n
attr datetime 20150820-21:03:28
attr experiment DSRUU-FS-100n
attr inifile omnetpp.ini
attr iterationvars ""
attr iterationvars2 $repetition=10
attr measurement ""
attr network Prj_Part1_propag.scenarioPRJP1
attr processid 3360
attr repetition 10
attr replication #10
attr resultdir results
attr runnumber 10
attr seedset 10

scalar scenarioPRJP1.radioMedium.propagation 	"Arrival computation count" 	578490957
scalar scenarioPRJP1.radioMedium 	"transmission count" 	5843343
scalar scenarioPRJP1.radioMedium 	"radio frame send count" 	578490957
scalar scenarioPRJP1.radioMedium 	"reception computation count" 	570729660
scalar scenarioPRJP1.radioMedium 	"interference computation count" 	1386419686
scalar scenarioPRJP1.radioMedium 	"reception decision computation count" 	35195408
scalar scenarioPRJP1.radioMedium 	"listening decision computation count" 	799051770
scalar scenarioPRJP1.radioMedium 	"reception cache hit" 	92.055481745625
attr unit  %
scalar scenarioPRJP1.radioMedium 	"interference cache hit" 	50
attr unit  %
scalar scenarioPRJP1.radioMedium 	"noise cache hit" 	0
attr unit  %
scalar scenarioPRJP1.radioMedium 	"snir cache hit" 	0
attr unit  %
scalar scenarioPRJP1.radioMedium 	"reception decision cache hit" 	0
attr unit  %
scalar scenarioPRJP1.node[0].app 	"Total sent" 	2611
scalar scenarioPRJP1.node[0].app 	"Total received" 	103
scalar scenarioPRJP1.node[0].app 	"Total deleted" 	3
scalar scenarioPRJP1.node[0].app 	dropPk:count 	3
attr interpolationmode  none
attr source  dropPk
attr title  "packets dropped, count"
scalar scenarioPRJP1.node[0].app 	dropPk:sum(packetBytes) 	1536
attr interpolationmode  none
attr source  dropPk
attr title  "packets dropped, sum(packetBytes)"
scalar scenarioPRJP1.node[0].app 	outOfOrderPk:count 	15
attr interpolationmode  none
attr source  outOfOrderPk
attr title  "packets received out of order, count"
scalar scenarioPRJP1.node[0].app 	outOfOrderPk:sum(packetBytes) 	7680
attr interpolationmode  none
attr source  outOfOrderPk
attr title  "packets received out of order, sum(packetBytes)"
scalar scenarioPRJP1.node[0].app 	rcvdPk:count 	103
attr interpolationmode  none
attr source  rcvdPk
attr title  "packets received, count"
scalar scenarioPRJP1.node[0].app 	rcvdPk:sum(packetBytes) 	52736
attr interpolationmode  none
attr source  rcvdPk
attr title  "packets received, sum(packetBytes)"
statistic scenarioPRJP1.node[0].app 	endToEndDelay:histogram
field count 103
field mean 0.84697547483711
field stddev 1.8950761366292
field sum 87.238473908222
field sqrsum 440.20283135185
field min 0.001120174438
field max 12.615940090252
attr interpolationmode  none
attr source  messageAge(rcvdPk)
attr title  "delay, histogram"
attr unit  s
bin	-INF	0
bin	-6.306289783469	0
bin	-5.4653017890814	0
bin	-4.6243137946938	0
bin	-3.7833258003062	0
bin	-2.9423378059186	0
bin	-2.101349811531	0
bin	-1.2603618171434	0
bin	-0.4193738227558	77
bin	0.4216141716318	6
bin	1.2626021660194	4
bin	2.103590160407	4
bin	2.9445781547946	2
bin	3.7855661491822	4
bin	4.6265541435698	2
bin	5.4675421379574	3
bin	6.308530132345	0
bin	7.1495181267326	0
bin	7.9905061211202	0
bin	8.8314941155078	0
bin	9.6724821098954	0
bin	10.513470104283	0
bin	11.354458098671	0
bin	12.195446093058	1
bin	13.036434087446	0
bin	13.877422081833	0
bin	14.718410076221	0
bin	15.559398070609	0
bin	16.400386064996	0
bin	17.241374059384	0
bin	18.082362053771	0
bin	18.923350048159	0
scalar scenarioPRJP1.node[0].app 	sentPk:count 	2611
attr interpolationmode  none
attr source  sentPk
attr title  "packets sent, count"
scalar scenarioPRJP1.node[0].app 	sentPk:sum(packetBytes) 	1336832
attr interpolationmode  none
attr source  sentPk
attr title  "packets sent, sum(packetBytes)"
scalar scenarioPRJP1.node[0].udp 	droppedPkBadChecksum:count 	0
attr interpolationmode  none
attr title  "packets dropped (checksum error), count"
scalar scenarioPRJP1.node[0].udp 	droppedPkWrongPort:count 	0
attr interpolationmode  none
attr title  "packets dropped (wrong port), count"
scalar scenarioPRJP1.node[0].udp 	passedUpPk:count 	121
attr interpolationmode  none
attr title  "packets passed up, count"
scalar scenarioPRJP1.node[0].udp 	rcvdPk:count 	121
attr interpolationmode  none
attr source  rcvdPk
attr title  "packets received, count"
scalar scenarioPRJP1.node[0].udp 	rcvdPk:sum(packetBytes) 	62920
attr interpolationmode  none
attr source  rcvdPk
attr title  "packets received, sum(packetBytes)"
scalar scenarioPRJP1.node[0].udp 	sentPk:count 	2611
attr interpolationmode  none
attr source  sentPk
attr title  "packets sent, count"
scalar scenarioPRJP1.node[0].udp 	sentPk:sum(packetBytes) 	1357720
attr interpolationmode  none
attr source  sentPk
attr title  "packets sent, sum(packetBytes)"
scalar scenarioPRJP1.node[0].networkLayer.arp 	failedARPResolution:count 	90
attr title  "ARP failed resolutions, count"
scalar scenarioPRJP1.node[0].networkLayer.arp 	completedARPResolution:count 	2329
attr title  "ARP completed resolutions, count"
scalar scenarioPRJP1.node[0].networkLayer.arp 	initiatedARPResolution:count 	188
attr title  "ARP initiated resolutions, count"
scalar scenarioPRJP1.node[0].networkLayer.arp 	sentReply:count 	73
attr title  "ARP replies sent, count"
scalar scenarioPRJP1.node[0].networkLayer.arp 	sentReq:count 	415
attr title  "ARP request sent, count"
scalar scenarioPRJP1.node[0].mobility 	startTime 	0.1
scalar scenarioPRJP1.node[0].mobility 	totalTime 	949.9
scalar scenarioPRJP1.node[0].mobility 	stopTime 	950
scalar scenarioPRJP1.node[0].mobility 	minSpeed 	2.4755048530503e-13
scalar scenarioPRJP1.node[0].mobility 	maxSpeed 	17.124261183049
scalar scenarioPRJP1.node[0].mobility 	totalDistance 	9893.1959993296
scalar scenarioPRJP1.node[0].mobility 	totalCO2Emission 	2624.5196935996
scalar scenarioPRJP1.node[0].wlan.mgmt 	dataQueueLen:max 	26
attr interpolationmode  sample-hold
attr title  "data queue length, max"
scalar scenarioPRJP1.node[0].wlan.mgmt 	dataQueueLen:timeavg 	0.00086416268906938
attr interpolationmode  sample-hold
attr title  "data queue length, timeavg"
scalar scenarioPRJP1.node[0].wlan.mgmt 	dropPkByQueue:count 	0
attr interpolationmode  none
attr source  dropPkByQueue
attr title  "packets dropped by queue, count"
scalar scenarioPRJP1.node[0].wlan.mgmt 	dropPkByQueue:sum(packetBytes) 	0
attr interpolationmode  none
attr source  dropPkByQueue
attr title  "packets dropped by queue, sum(packetBytes)"
scalar scenarioPRJP1.node[0].wlan.mac 	"number of received packets" 	9815
scalar scenarioPRJP1.node[0].wlan.mac 	"number of collisions" 	111682
scalar scenarioPRJP1.node[0].wlan.mac 	"number of internal collisions" 	0
scalar scenarioPRJP1.node[0].wlan.mac 	"number of retry for AC 0" 	28004
scalar scenarioPRJP1.node[0].wlan.mac 	"number of retry for AC 1" 	0
scalar scenarioPRJP1.node[0].wlan.mac 	"number of retry for AC 2" 	0
scalar scenarioPRJP1.node[0].wlan.mac 	"number of retry for AC 3" 	0
scalar scenarioPRJP1.node[0].wlan.mac 	"sent and received bits" 	17405536
scalar scenarioPRJP1.node[0].wlan.mac 	"sent packet within AC 0" 	5247
scalar scenarioPRJP1.node[0].wlan.mac 	"sent packet within AC 1" 	0
scalar scenarioPRJP1.node[0].wlan.mac 	"sent packet within AC 2" 	0
scalar scenarioPRJP1.node[0].wlan.mac 	"sent packet within AC 3" 	0
scalar scenarioPRJP1.node[0].wlan.mac 	"sent in TXOP " 	0
scalar scenarioPRJP1.node[0].wlan.mac 	"sentWithoutRetry AC 0" 	4486
scalar scenarioPRJP1.node[0].wlan.mac 	"sentWithoutRetry AC 1" 	0
scalar scenarioPRJP1.node[0].wlan.mac 	"sentWithoutRetry AC 2" 	0
scalar scenarioPRJP1.node[0].wlan.mac 	"sentWithoutRetry AC 3" 	0
scalar scenarioPRJP1.node[0].wlan.mac 	"numGivenUp AC 0" 	4367
scalar scenarioPRJP1.node[0].wlan.mac 	"numGivenUp AC 1" 	0
scalar scenarioPRJP1.node[0].wlan.mac 	"numGivenUp AC 2" 	0
scalar scenarioPRJP1.node[0].wlan.mac 	"numGivenUp AC 3" 	0
scalar scenarioPRJP1.node[0].wlan.mac 	"numDropped AC 0" 	26
scalar scenarioPRJP1.node[0].wlan.mac 	"numDropped AC 1" 	0
scalar scenarioPRJP1.node[0].wlan.mac 	"numDropped AC 2" 	0
scalar scenarioPRJP1.node[0].wlan.mac 	"numDropped AC 3" 	0
scalar scenarioPRJP1.node[0].wlan.mac 	rcvdPkFromLL:count 	380489
attr interpolationmode  none
attr source  packetReceivedFromLower
attr title  "packets received from lower layer, count"
scalar scenarioPRJP1.node[0].wlan.mac 	rcvdPkFromLL:sum(packetBytes) 	102727596
attr interpolationmode  none
attr source  packetReceivedFromLower
attr title  "packets received from lower layer, sum(packetBytes)"
scalar scenarioPRJP1.node[0].wlan.mac 	sentDownPk:count 	56910
attr interpolationmode  none
attr source  packetSentToLower
attr title  "packets sent to lower layer, count"
scalar scenarioPRJP1.node[0].wlan.mac 	sentDownPk:sum(packetBytes) 	15047186
attr interpolationmode  none
attr source  packetSentToLower
attr title  "packets sent to lower layer, sum(packetBytes)"
scalar scenarioPRJP1.node[0].wlan.mac 	rcvdPkFromHL:count 	19117
attr interpolationmode  none
attr source  packetReceivedFromUpper
attr title  "packets received from higher layer, count"
scalar scenarioPRJP1.node[0].wlan.mac 	rcvdPkFromHL:sum(packetBytes) 	3899372
attr interpolationmode  none
attr source  packetReceivedFromUpper
attr title  "packets received from higher layer, sum(packetBytes)"
scalar scenarioPRJP1.node[0].wlan.mac 	passedUpPk:count 	43362
attr interpolationmode  none
attr source  packetSentToUpper
attr title  "packets passed to higher layer, count"
scalar scenarioPRJP1.node[0].wlan.mac 	passedUpPk:sum(packetBytes) 	4229012
attr interpolationmode  none
attr source  packetSentToUpper
attr title  "packets passed to higher layer, sum(packetBytes)"
statistic scenarioPRJP1.node[0].wlan.radio 	radioChannel:histogram
field count 1
field mean 3
field stddev -nan
field sum 3
field sqrsum 9
field min 3
field max 3
attr interpolationmode  sample-hold
attr source  radioChannelChanged
attr title  "Radio channel, histogram"
bin	-INF	0
bin	2	0
bin	3	1
bin	4	0
scalar scenarioPRJP1.node[0].wlan.radio 	transmissionState:count 	227640
attr interpolationmode  sample-hold
attr source  transmissionStateChanged
attr title  "Radio transmission state, count"
scalar scenarioPRJP1.node[0].wlan.radio 	receptionState:count 	939823
attr interpolationmode  sample-hold
attr source  receptionStateChanged
attr title  "Radio reception state, count"
scalar scenarioPRJP1.node[0].wlan.radio 	radioMode:count 	113822
attr interpolationmode  sample-hold
attr source  radioModeChanged
attr title  "Radio mode, count"
statistic scenarioPRJP1.node[0].wlan.radio 	symbolErrorRate:histogram
field count 0
field mean -nan
field stddev -nan
field sum 0
field sqrsum 0
field min -nan
field max -nan
attr source  symbolErrorRate
attr title  "Symbol error rate, histogram"
bin	-INF	0
bin	-0.5	0
bin	-0.46666666666667	0
bin	-0.43333333333333	0
bin	-0.4	0
bin	-0.36666666666667	0
bin	-0.33333333333333	0
bin	-0.3	0
bin	-0.26666666666667	0
bin	-0.23333333333333	0
bin	-0.2	0
bin	-0.16666666666667	0
bin	-0.13333333333333	0
bin	-0.1	0
bin	-0.066666666666667	0
bin	-0.033333333333333	0
bin	0	0
bin	0.033333333333333	0
bin	0.066666666666667	0
bin	0.1	0
bin	0.13333333333333	0
bin	0.16666666666667	0
bin	0.2	0
bin	0.23333333333333	0
bin	0.26666666666667	0
bin	0.3	0
bin	0.33333333333333	0
bin	0.36666666666667	0
bin	0.4	0
bin	0.43333333333333	0
bin	0.46666666666667	0
bin	0.5	0
statistic scenarioPRJP1.node[0].wlan.radio 	bitErrorRate:histogram
field count 0
field mean -nan
field stddev -nan
field sum 0
field sqrsum 0
field min -nan
field max -nan
attr source  bitErrorRate
attr title  "Bit error rate, histogram"
bin	-INF	0
bin	-0.5	0
bin	-0.46666666666667	0
bin	-0.43333333333333	0
bin	-0.4	0
bin	-0.36666666666667	0
bin	-0.33333333333333	0
bin	-0.3	0
bin	-0.26666666666667	0
bin	-0.23333333333333	0
bin	-0.2	0
bin	-0.16666666666667	0
bin	-0.13333333333333	0
bin	-0.1	0
bin	-0.066666666666667	0
bin	-0.033333333333333	0
bin	0	0
bin	0.033333333333333	0
bin	0.066666666666667	0
bin	0.1	0
bin	0.13333333333333	0
bin	0.16666666666667	0
bin	0.2	0
bin	0.23333333333333	0
bin	0.26666666666667	0
bin	0.3	0
bin	0.33333333333333	0
bin	0.36666666666667	0
bin	0.4	0
bin	0.43333333333333	0
bin	0.46666666666667	0
bin	0.5	0
statistic scenarioPRJP1.node[0].wlan.radio 	packetErrorRate:histogram
field count 380489
field mean 0.27728987350573
field stddev 0.43881286122327
field sum 105505.74668032
field sqrsum 102521.19916046
field min 0
field max 1
attr source  packetErrorRate
attr title  "Packet error rate, histogram"
bin	-INF	0
bin	-0.5	0
bin	-0.43333333333333	0
bin	-0.36666666666667	0
bin	-0.3	0
bin	-0.23333333333333	0
bin	-0.16666666666667	0
bin	-0.1	0
bin	-0.033333333333333	262974
bin	0.033333333333333	4802
bin	0.1	2369
bin	0.16666666666667	1589
bin	0.23333333333333	1223
bin	0.3	1099
bin	0.36666666666667	940
bin	0.43333333333333	880
bin	0.5	825
bin	0.56666666666667	794
bin	0.63333333333333	784
bin	0.7	810
bin	0.76666666666667	924
bin	0.83333333333333	1109
bin	0.9	1573
bin	0.96666666666667	97794
bin	1.0333333333333	0
bin	1.1	0
bin	1.1666666666667	0
bin	1.2333333333333	0
bin	1.3	0
bin	1.3666666666667	0
bin	1.4333333333333	0
bin	1.5	0
statistic scenarioPRJP1.node[0].wlan.radio 	minSNIR:histogram
field count 380489
field mean 2210.8964222833
field stddev 26827.233111965
field sum 841221768.81815
field sqrsum 2.7569723386061e+14
field min 0.00016853134752395
field max 753239.71923443
attr source  minSNIR
attr title  "Min SNIR, histogram"
bin	-INF	0
bin	-20.797797602428	0
bin	-17.971757273003	0
bin	-15.145716943577	0
bin	-12.319676614152	0
bin	-9.4936362847269	0
bin	-6.6675959553017	0
bin	-3.8415556258765	0
bin	-1.0155152964512	67161
bin	1.810525032974	65035
bin	4.6365653623992	31299
bin	7.4626056918245	18778
bin	10.28864602125	13154
bin	13.114686350675	9428
bin	15.9407266801	7468
bin	18.766767009525	5992
bin	21.592807338951	4914
bin	24.418847668376	4273
bin	27.244887997801	3569
bin	30.070928327226	3201
bin	32.896968656652	2952
bin	35.723008986077	2617
bin	38.549049315502	2336
bin	41.375089644927	2108
bin	44.201129974352	2012
bin	47.027170303778	1807
bin	49.853210633203	1782
bin	52.679250962628	1629
bin	55.505291292053	1561
bin	58.331331621479	1410
bin	61.157371950904	1293
bin	63.983412280329	124710
scalar scenarioPRJP1.node[0].lo0.lo 	droppedPkBitError:count 	0
attr interpolationmode  none
attr source  dropPkBitError
attr title  "packets dropped/bit error, count"
scalar scenarioPRJP1.node[0].lo0.lo 	droppedPkBitError:sum(packetBytes) 	0
attr interpolationmode  none
attr source  dropPkBitError
attr title  "packets dropped/bit error, sum(packetBytes)"
scalar scenarioPRJP1.node[0].lo0.lo 	rcvdPkFromHL:count 	121
attr interpolationmode  none
attr source  packetReceivedFromUpper
attr title  "packets received from higher layer, count"
scalar scenarioPRJP1.node[0].lo0.lo 	rcvdPkFromHL:sum(packetBytes) 	62920
attr interpolationmode  none
attr source  packetReceivedFromUpper
attr title  "packets received from higher layer, sum(packetBytes)"
scalar scenarioPRJP1.node[0].lo0.lo 	passedUpPk:count 	121
attr interpolationmode  none
attr source  packetSentToUpper
attr title  "packets passed to higher layer, count"
scalar scenarioPRJP1.node[0].lo0.lo 	passedUpPk:sum(packetBytes) 	62920
attr interpolationmode  none
attr source  packetSentToUpper
attr title  "packets passed to higher layer, sum(packetBytes)"
scalar scenarioPRJP1.node[20].app 	"Total sent" 	2606
scalar scenarioPRJP1.node[20].app 	"Total received" 	88
scalar scenarioPRJP1.node[20].app 	"Total deleted" 	1
scalar scenarioPRJP1.node[20].app 	dropPk:count 	1
attr interpolationmode  none
attr source  dropPk
attr title  "packets dropped, count"
scalar scenarioPRJP1.node[20].app 	dropPk:sum(packetBytes) 	512
attr interpolationmode  none
attr source  dropPk
attr title  "packets dropped, sum(packetBytes)"
scalar scenarioPRJP1.node[20].app 	outOfOrderPk:count 	4
attr interpolationmode  none
attr source  outOfOrderPk
attr title  "packets received out of order, count"
scalar scenarioPRJP1.node[20].app 	outOfOrderPk:sum(packetBytes) 	2048
attr interpolationmode  none
attr source  outOfOrderPk
attr title  "packets received out of order, sum(packetBytes)"
scalar scenarioPRJP1.node[20].app 	rcvdPk:count 	88
attr interpolationmode  none
attr source  rcvdPk
attr title  "packets received, count"
scalar scenarioPRJP1.node[20].app 	rcvdPk:sum(packetBytes) 	45056
attr interpolationmode  none
attr source  rcvdPk
attr title  "packets received, sum(packetBytes)"
statistic scenarioPRJP1.node[20].app 	endToEndDelay:histogram
field count 88
field mean 0.81828661774531
field stddev 2.0596509113798
field sum 72.009222361587
field sqrsum 427.99226628979
field min 0.001030160777
field max 11.010097292678
attr interpolationmode  none
attr source  messageAge(rcvdPk)
attr title  "delay, histogram"
attr unit  s
bin	-INF	0
bin	-5.5035034051735	0
bin	-4.7695655963801	0
bin	-4.0356277875867	0
bin	-3.3016899787933	0
bin	-2.5677521699999	0
bin	-1.8338143612065	0
bin	-1.0998765524131	0
bin	-0.3659387436197	69
bin	0.3679990651737	3
bin	1.1019368739671	6
bin	1.8358746827605	0
bin	2.5698124915539	2
bin	3.3037503003473	1
bin	4.0376881091407	2
bin	4.7716259179341	1
bin	5.5055637267275	1
bin	6.2395015355209	0
bin	6.9734393443143	1
bin	7.7073771531077	0
bin	8.4413149619011	0
bin	9.1752527706945	0
bin	9.9091905794879	1
bin	10.643128388281	1
bin	11.377066197075	0
bin	12.111004005868	0
bin	12.844941814661	0
bin	13.578879623455	0
bin	14.312817432248	0
bin	15.046755241042	0
bin	15.780693049835	0
bin	16.514630858629	0
scalar scenarioPRJP1.node[20].app 	sentPk:count 	2606
attr interpolationmode  none
attr source  sentPk
attr title  "packets sent, count"
scalar scenarioPRJP1.node[20].app 	sentPk:sum(packetBytes) 	1334272
attr interpolationmode  none
attr source  sentPk
attr title  "packets sent, sum(packetBytes)"
scalar scenarioPRJP1.node[20].udp 	droppedPkBadChecksum:count 	0
attr interpolationmode  none
attr title  "packets dropped (checksum error), count"
scalar scenarioPRJP1.node[20].udp 	droppedPkWrongPort:count 	0
attr interpolationmode  none
attr title  "packets dropped (wrong port), count"
scalar scenarioPRJP1.node[20].udp 	passedUpPk:count 	93
attr interpolationmode  none
attr title  "packets passed up, count"
scalar scenarioPRJP1.node[20].udp 	rcvdPk:count 	93
attr interpolationmode  none
attr source  rcvdPk
attr title  "packets received, count"
scalar scenarioPRJP1.node[20].udp 	rcvdPk:sum(packetBytes) 	48360
attr interpolationmode  none
attr source  rcvdPk
attr title  "packets received, sum(packetBytes)"
scalar scenarioPRJP1.node[20].udp 	sentPk:count 	2606
attr interpolationmode  none
attr source  sentPk
attr title  "packets sent, count"
scalar scenarioPRJP1.node[20].udp 	sentPk:sum(packetBytes) 	1355120
attr interpolationmode  none
attr source  sentPk
attr title  "packets sent, sum(packetBytes)"
scalar scenarioPRJP1.node[20].networkLayer.arp 	failedARPResolution:count 	55
attr title  "ARP failed resolutions, count"
scalar scenarioPRJP1.node[20].networkLayer.arp 	completedARPResolution:count 	1539
attr title  "ARP completed resolutions, count"
scalar scenarioPRJP1.node[20].networkLayer.arp 	initiatedARPResolution:count 	126
attr title  "ARP initiated resolutions, count"
scalar scenarioPRJP1.node[20].networkLayer.arp 	sentReply:count 	74
attr title  "ARP replies sent, count"
scalar scenarioPRJP1.node[20].networkLayer.arp 	sentReq:count 	272
attr title  "ARP request sent, count"
scalar scenarioPRJP1.node[20].mobility 	startTime 	2.5
scalar scenarioPRJP1.node[20].mobility 	totalTime 	947.5
scalar scenarioPRJP1.node[20].mobility 	stopTime 	950
scalar scenarioPRJP1.node[20].mobility 	minSpeed 	2.4754453771889e-13
scalar scenarioPRJP1.node[20].mobility 	maxSpeed 	16.12553907571
scalar scenarioPRJP1.node[20].mobility 	totalDistance 	8961.8828450743
scalar scenarioPRJP1.node[20].mobility 	totalCO2Emission 	2253.4186336301
scalar scenarioPRJP1.node[20].wlan.mgmt 	dataQueueLen:max 	57
attr interpolationmode  sample-hold
attr title  "data queue length, max"
scalar scenarioPRJP1.node[20].wlan.mgmt 	dataQueueLen:timeavg 	0.26079142999639
attr interpolationmode  sample-hold
attr title  "data queue length, timeavg"
scalar scenarioPRJP1.node[20].wlan.mgmt 	dropPkByQueue:count 	0
attr interpolationmode  none
attr source  dropPkByQueue
attr title  "packets dropped by queue, count"
scalar scenarioPRJP1.node[20].wlan.mgmt 	dropPkByQueue:sum(packetBytes) 	0
attr interpolationmode  none
attr source  dropPkByQueue
attr title  "packets dropped by queue, sum(packetBytes)"
scalar scenarioPRJP1.node[20].wlan.mac 	"number of received packets" 	12055
scalar scenarioPRJP1.node[20].wlan.mac 	"number of collisions" 	95784
scalar scenarioPRJP1.node[20].wlan.mac 	"number of internal collisions" 	0
scalar scenarioPRJP1.node[20].wlan.mac 	"number of retry for AC 0" 	34708
scalar scenarioPRJP1.node[20].wlan.mac 	"number of retry for AC 1" 	0
scalar scenarioPRJP1.node[20].wlan.mac 	"number of retry for AC 2" 	0
scalar scenarioPRJP1.node[20].wlan.mac 	"number of retry for AC 3" 	0
scalar scenarioPRJP1.node[20].wlan.mac 	"sent and received bits" 	18474272
scalar scenarioPRJP1.node[20].wlan.mac 	"sent packet within AC 0" 	5550
scalar scenarioPRJP1.node[20].wlan.mac 	"sent packet within AC 1" 	0
scalar scenarioPRJP1.node[20].wlan.mac 	"sent packet within AC 2" 	0
scalar scenarioPRJP1.node[20].wlan.mac 	"sent packet within AC 3" 	0
scalar scenarioPRJP1.node[20].wlan.mac 	"sent in TXOP " 	0
scalar scenarioPRJP1.node[20].wlan.mac 	"sentWithoutRetry AC 0" 	4904
scalar scenarioPRJP1.node[20].wlan.mac 	"sentWithoutRetry AC 1" 	0
scalar scenarioPRJP1.node[20].wlan.mac 	"sentWithoutRetry AC 2" 	0
scalar scenarioPRJP1.node[20].wlan.mac 	"sentWithoutRetry AC 3" 	0
scalar scenarioPRJP1.node[20].wlan.mac 	"numGivenUp AC 0" 	5548
scalar scenarioPRJP1.node[20].wlan.mac 	"numGivenUp AC 1" 	0
scalar scenarioPRJP1.node[20].wlan.mac 	"numGivenUp AC 2" 	0
scalar scenarioPRJP1.node[20].wlan.mac 	"numGivenUp AC 3" 	0
scalar scenarioPRJP1.node[20].wlan.mac 	"numDropped AC 0" 	746
scalar scenarioPRJP1.node[20].wlan.mac 	"numDropped AC 1" 	0
scalar scenarioPRJP1.node[20].wlan.mac 	"numDropped AC 2" 	0
scalar scenarioPRJP1.node[20].wlan.mac 	"numDropped AC 3" 	0
scalar scenarioPRJP1.node[20].wlan.mac 	rcvdPkFromLL:count 	370237
attr interpolationmode  none
attr source  packetReceivedFromLower
attr title  "packets received from lower layer, count"
scalar scenarioPRJP1.node[20].wlan.mac 	rcvdPkFromLL:sum(packetBytes) 	91331882
attr interpolationmode  none
attr source  packetReceivedFromLower
attr title  "packets received from lower layer, sum(packetBytes)"
scalar scenarioPRJP1.node[20].wlan.mac 	sentDownPk:count 	69429
attr interpolationmode  none
attr source  packetSentToLower
attr title  "packets sent to lower layer, count"
scalar scenarioPRJP1.node[20].wlan.mac 	sentDownPk:sum(packetBytes) 	18843406
attr interpolationmode  none
attr source  packetSentToLower
attr title  "packets sent to lower layer, sum(packetBytes)"
scalar scenarioPRJP1.node[20].wlan.mac 	rcvdPkFromHL:count 	23412
attr interpolationmode  none
attr source  packetReceivedFromUpper
attr title  "packets received from higher layer, count"
scalar scenarioPRJP1.node[20].wlan.mac 	rcvdPkFromHL:sum(packetBytes) 	4722080
attr interpolationmode  none
attr source  packetReceivedFromUpper
attr title  "packets received from higher layer, sum(packetBytes)"
scalar scenarioPRJP1.node[20].wlan.mac 	passedUpPk:count 	60543
attr interpolationmode  none
attr source  packetSentToUpper
attr title  "packets passed to higher layer, count"
scalar scenarioPRJP1.node[20].wlan.mac 	passedUpPk:sum(packetBytes) 	5829460
attr interpolationmode  none
attr source  packetSentToUpper
attr title  "packets passed to higher layer, sum(packetBytes)"
statistic scenarioPRJP1.node[20].wlan.radio 	radioChannel:histogram
field count 1
field mean 3
field stddev -nan
field sum 3
field sqrsum 9
field min 3
field max 3
attr interpolationmode  sample-hold
attr source  radioChannelChanged
attr title  "Radio channel, histogram"
bin	-INF	0
bin	2	0
bin	3	1
bin	4	0
scalar scenarioPRJP1.node[20].wlan.radio 	transmissionState:count 	277716
attr interpolationmode  sample-hold
attr source  transmissionStateChanged
attr title  "Radio transmission state, count"
scalar scenarioPRJP1.node[20].wlan.radio 	receptionState:count 	926164
attr interpolationmode  sample-hold
attr source  receptionStateChanged
attr title  "Radio reception state, count"
scalar scenarioPRJP1.node[20].wlan.radio 	radioMode:count 	138860
attr interpolationmode  sample-hold
attr source  radioModeChanged
attr title  "Radio mode, count"
statistic scenarioPRJP1.node[20].wlan.radio 	symbolErrorRate:histogram
field count 0
field mean -nan
field stddev -nan
field sum 0
field sqrsum 0
field min -nan
field max -nan
attr source  symbolErrorRate
attr title  "Symbol error rate, histogram"
bin	-INF	0
bin	-0.5	0
bin	-0.46666666666667	0
bin	-0.43333333333333	0
bin	-0.4	0
bin	-0.36666666666667	0
bin	-0.33333333333333	0
bin	-0.3	0
bin	-0.26666666666667	0
bin	-0.23333333333333	0
bin	-0.2	0
bin	-0.16666666666667	0
bin	-0.13333333333333	0
bin	-0.1	0
bin	-0.066666666666667	0
bin	-0.033333333333333	0
bin	0	0
bin	0.033333333333333	0
bin	0.066666666666667	0
bin	0.1	0
bin	0.13333333333333	0
bin	0.16666666666667	0
bin	0.2	0
bin	0.23333333333333	0
bin	0.26666666666667	0
bin	0.3	0
bin	0.33333333333333	0
bin	0.36666666666667	0
bin	0.4	0
bin	0.43333333333333	0
bin	0.46666666666667	0
bin	0.5	0
statistic scenarioPRJP1.node[20].wlan.radio 	bitErrorRate:histogram
field count 0
field mean -nan
field stddev -nan
field sum 0
field sqrsum 0
field min -nan
field max -nan
attr source  bitErrorRate
attr title  "Bit error rate, histogram"
bin	-INF	0
bin	-0.5	0
bin	-0.46666666666667	0
bin	-0.43333333333333	0
bin	-0.4	0
bin	-0.36666666666667	0
bin	-0.33333333333333	0
bin	-0.3	0
bin	-0.26666666666667	0
bin	-0.23333333333333	0
bin	-0.2	0
bin	-0.16666666666667	0
bin	-0.13333333333333	0
bin	-0.1	0
bin	-0.066666666666667	0
bin	-0.033333333333333	0
bin	0	0
bin	0.033333333333333	0
bin	0.066666666666667	0
bin	0.1	0
bin	0.13333333333333	0
bin	0.16666666666667	0
bin	0.2	0
bin	0.23333333333333	0
bin	0.26666666666667	0
bin	0.3	0
bin	0.33333333333333	0
bin	0.36666666666667	0
bin	0.4	0
bin	0.43333333333333	0
bin	0.46666666666667	0
bin	0.5	0
statistic scenarioPRJP1.node[20].wlan.radio 	packetErrorRate:histogram
field count 370237
field mean 0.24169869360821
field stddev 0.41912653649053
field sum 89485.799225421
field sqrsum 86666.868022419
field min 0
field max 1
attr source  packetErrorRate
attr title  "Packet error rate, histogram"
bin	-INF	0
bin	-0.5	0
bin	-0.43333333333333	0
bin	-0.36666666666667	0
bin	-0.3	0
bin	-0.23333333333333	0
bin	-0.16666666666667	0
bin	-0.1	0
bin	-0.033333333333333	269132
bin	0.033333333333333	4850
bin	0.1	2276
bin	0.16666666666667	1460
bin	0.23333333333333	1242
bin	0.3	1017
bin	0.36666666666667	868
bin	0.43333333333333	736
bin	0.5	763
bin	0.56666666666667	773
bin	0.63333333333333	719
bin	0.7	821
bin	0.76666666666667	821
bin	0.83333333333333	996
bin	0.9	1585
bin	0.96666666666667	82178
bin	1.0333333333333	0
bin	1.1	0
bin	1.1666666666667	0
bin	1.2333333333333	0
bin	1.3	0
bin	1.3666666666667	0
bin	1.4333333333333	0
bin	1.5	0
statistic scenarioPRJP1.node[20].wlan.radio 	minSNIR:histogram
field count 370237
field mean 902.10092510942
field stddev 11024.068107697
field sum 333991140.20974
field sqrsum 45296103542852
field min 0.00016745269995791
field max 1272319.8141862
attr source  minSNIR
attr title  "Min SNIR, histogram"
bin	-INF	0
bin	-87.4354113554	0
bin	-75.760949765353	0
bin	-64.086488175306	0
bin	-52.412026585259	0
bin	-40.737564995211	0
bin	-29.063103405164	0
bin	-17.388641815117	0
bin	-5.7141802250701	135353
bin	5.960281364977	67625
bin	17.634742955024	25059
bin	29.309204545071	15032
bin	40.983666135118	10356
bin	52.658127725165	8031
bin	64.332589315213	6441
bin	76.00705090526	5335
bin	87.681512495307	4553
bin	99.355974085354	3678
bin	111.0304356754	3285
bin	122.70489726545	3699
bin	134.3793588555	3401
bin	146.05382044554	2916
bin	157.72828203559	2858
bin	169.40274362564	2748
bin	181.07720521568	2241
bin	192.75166680573	2424
bin	204.42612839578	2321
bin	216.10058998583	1720
bin	227.77505157587	1543
bin	239.44951316592	1374
bin	251.12397475597	1440
bin	262.79843634601	56804
scalar scenarioPRJP1.node[20].lo0.lo 	droppedPkBitError:count 	0
attr interpolationmode  none
attr source  dropPkBitError
attr title  "packets dropped/bit error, count"
scalar scenarioPRJP1.node[20].lo0.lo 	droppedPkBitError:sum(packetBytes) 	0
attr interpolationmode  none
attr source  dropPkBitError
attr title  "packets dropped/bit error, sum(packetBytes)"
scalar scenarioPRJP1.node[20].lo0.lo 	rcvdPkFromHL:count 	93
attr interpolationmode  none
attr source  packetReceivedFromUpper
attr title  "packets received from higher layer, count"
scalar scenarioPRJP1.node[20].lo0.lo 	rcvdPkFromHL:sum(packetBytes) 	48360
attr interpolationmode  none
attr source  packetReceivedFromUpper
attr title  "packets received from higher layer, sum(packetBytes)"
scalar scenarioPRJP1.node[20].lo0.lo 	passedUpPk:count 	93
attr interpolationmode  none
attr source  packetSentToUpper
attr title  "packets passed to higher layer, count"
scalar scenarioPRJP1.node[20].lo0.lo 	passedUpPk:sum(packetBytes) 	48360
attr interpolationmode  none
attr source  packetSentToUpper
attr title  "packets passed to higher layer, sum(packetBytes)"
scalar scenarioPRJP1.node[40].app 	"Total sent" 	2617
scalar scenarioPRJP1.node[40].app 	"Total received" 	88
scalar scenarioPRJP1.node[40].app 	"Total deleted" 	5
scalar scenarioPRJP1.node[40].app 	dropPk:count 	5
attr interpolationmode  none
attr source  dropPk
attr title  "packets dropped, count"
scalar scenarioPRJP1.node[40].app 	dropPk:sum(packetBytes) 	2560
attr interpolationmode  none
attr source  dropPk
attr title  "packets dropped, sum(packetBytes)"
scalar scenarioPRJP1.node[40].app 	outOfOrderPk:count 	3
attr interpolationmode  none
attr source  outOfOrderPk
attr title  "packets received out of order, count"
scalar scenarioPRJP1.node[40].app 	outOfOrderPk:sum(packetBytes) 	1536
attr interpolationmode  none
attr source  outOfOrderPk
attr title  "packets received out of order, sum(packetBytes)"
scalar scenarioPRJP1.node[40].app 	rcvdPk:count 	88
attr interpolationmode  none
attr source  rcvdPk
attr title  "packets received, count"
scalar scenarioPRJP1.node[40].app 	rcvdPk:sum(packetBytes) 	45056
attr interpolationmode  none
attr source  rcvdPk
attr title  "packets received, sum(packetBytes)"
statistic scenarioPRJP1.node[40].app 	endToEndDelay:histogram
field count 88
field mean 1.6422370454373
field stddev 3.6877909456436
field sum 144.51685999848
field sqrsum 1420.5137202929
field min 0.000964178743
field max 16.808659076159
attr interpolationmode  none
attr source  messageAge(rcvdPk)
attr title  "delay, histogram"
attr unit  s
bin	-INF	0
bin	-8.402883269965	0
bin	-7.2823702768039	0
bin	-6.1618572836429	0
bin	-5.0413442904818	0
bin	-3.9208312973207	0
bin	-2.8003183041597	0
bin	-1.6798053109986	0
bin	-0.55929231783753	59
bin	0.56122067532353	15
bin	1.6817336684846	1
bin	2.8022466616457	2
bin	3.9227596548067	1
bin	5.0432726479678	1
bin	6.1637856411289	0
bin	7.2842986342899	1
bin	8.404811627451	3
bin	9.5253246206121	1
bin	10.645837613773	0
bin	11.766350606934	1
bin	12.886863600095	0
bin	14.007376593256	1
bin	15.127889586417	0
bin	16.248402579578	2
bin	17.36891557274	0
bin	18.489428565901	0
bin	19.609941559062	0
bin	20.730454552223	0
bin	21.850967545384	0
bin	22.971480538545	0
bin	24.091993531706	0
bin	25.212506524867	0
scalar scenarioPRJP1.node[40].app 	sentPk:count 	2617
attr interpolationmode  none
attr source  sentPk
attr title  "packets sent, count"
scalar scenarioPRJP1.node[40].app 	sentPk:sum(packetBytes) 	1339904
attr interpolationmode  none
attr source  sentPk
attr title  "packets sent, sum(packetBytes)"
scalar scenarioPRJP1.node[40].udp 	droppedPkBadChecksum:count 	0
attr interpolationmode  none
attr title  "packets dropped (checksum error), count"
scalar scenarioPRJP1.node[40].udp 	droppedPkWrongPort:count 	0
attr interpolationmode  none
attr title  "packets dropped (wrong port), count"
scalar scenarioPRJP1.node[40].udp 	passedUpPk:count 	96
attr interpolationmode  none
attr title  "packets passed up, count"
scalar scenarioPRJP1.node[40].udp 	rcvdPk:count 	96
attr interpolationmode  none
attr source  rcvdPk
attr title  "packets received, count"
scalar scenarioPRJP1.node[40].udp 	rcvdPk:sum(packetBytes) 	49920
attr interpolationmode  none
attr source  rcvdPk
attr title  "packets received, sum(packetBytes)"
scalar scenarioPRJP1.node[40].udp 	sentPk:count 	2617
attr interpolationmode  none
attr source  sentPk
attr title  "packets sent, count"
scalar scenarioPRJP1.node[40].udp 	sentPk:sum(packetBytes) 	1360840
attr interpolationmode  none
attr source  sentPk
attr title  "packets sent, sum(packetBytes)"
scalar scenarioPRJP1.node[40].networkLayer.arp 	failedARPResolution:count 	76
attr title  "ARP failed resolutions, count"
scalar scenarioPRJP1.node[40].networkLayer.arp 	completedARPResolution:count 	1636
attr title  "ARP completed resolutions, count"
scalar scenarioPRJP1.node[40].networkLayer.arp 	initiatedARPResolution:count 	144
attr title  "ARP initiated resolutions, count"
scalar scenarioPRJP1.node[40].networkLayer.arp 	sentReply:count 	75
attr title  "ARP replies sent, count"
scalar scenarioPRJP1.node[40].networkLayer.arp 	sentReq:count 	338
attr title  "ARP request sent, count"
scalar scenarioPRJP1.node[40].mobility 	startTime 	4.9
scalar scenarioPRJP1.node[40].mobility 	totalTime 	945.1
scalar scenarioPRJP1.node[40].mobility 	stopTime 	950
scalar scenarioPRJP1.node[40].mobility 	minSpeed 	2.4755485235852e-13
scalar scenarioPRJP1.node[40].mobility 	maxSpeed 	17.799494035318
scalar scenarioPRJP1.node[40].mobility 	totalDistance 	8882.1316894559
scalar scenarioPRJP1.node[40].mobility 	totalCO2Emission 	2484.0967156242
scalar scenarioPRJP1.node[40].wlan.mgmt 	dataQueueLen:max 	10
attr interpolationmode  sample-hold
attr title  "data queue length, max"
scalar scenarioPRJP1.node[40].wlan.mgmt 	dataQueueLen:timeavg 	0
attr interpolationmode  sample-hold
attr title  "data queue length, timeavg"
scalar scenarioPRJP1.node[40].wlan.mgmt 	dropPkByQueue:count 	0
attr interpolationmode  none
attr source  dropPkByQueue
attr title  "packets dropped by queue, count"
scalar scenarioPRJP1.node[40].wlan.mgmt 	dropPkByQueue:sum(packetBytes) 	0
attr interpolationmode  none
attr source  dropPkByQueue
attr title  "packets dropped by queue, sum(packetBytes)"
scalar scenarioPRJP1.node[40].wlan.mac 	"number of received packets" 	9676
scalar scenarioPRJP1.node[40].wlan.mac 	"number of collisions" 	79966
scalar scenarioPRJP1.node[40].wlan.mac 	"number of internal collisions" 	0
scalar scenarioPRJP1.node[40].wlan.mac 	"number of retry for AC 0" 	28517
scalar scenarioPRJP1.node[40].wlan.mac 	"number of retry for AC 1" 	0
scalar scenarioPRJP1.node[40].wlan.mac 	"number of retry for AC 2" 	0
scalar scenarioPRJP1.node[40].wlan.mac 	"number of retry for AC 3" 	0
scalar scenarioPRJP1.node[40].wlan.mac 	"sent and received bits" 	17846432
scalar scenarioPRJP1.node[40].wlan.mac 	"sent packet within AC 0" 	5282
scalar scenarioPRJP1.node[40].wlan.mac 	"sent packet within AC 1" 	0
scalar scenarioPRJP1.node[40].wlan.mac 	"sent packet within AC 2" 	0
scalar scenarioPRJP1.node[40].wlan.mac 	"sent packet within AC 3" 	0
scalar scenarioPRJP1.node[40].wlan.mac 	"sent in TXOP " 	0
scalar scenarioPRJP1.node[40].wlan.mac 	"sentWithoutRetry AC 0" 	4641
scalar scenarioPRJP1.node[40].wlan.mac 	"sentWithoutRetry AC 1" 	0
scalar scenarioPRJP1.node[40].wlan.mac 	"sentWithoutRetry AC 2" 	0
scalar scenarioPRJP1.node[40].wlan.mac 	"sentWithoutRetry AC 3" 	0
scalar scenarioPRJP1.node[40].wlan.mac 	"numGivenUp AC 0" 	4492
scalar scenarioPRJP1.node[40].wlan.mac 	"numGivenUp AC 1" 	0
scalar scenarioPRJP1.node[40].wlan.mac 	"numGivenUp AC 2" 	0
scalar scenarioPRJP1.node[40].wlan.mac 	"numGivenUp AC 3" 	0
scalar scenarioPRJP1.node[40].wlan.mac 	"numDropped AC 0" 	0
scalar scenarioPRJP1.node[40].wlan.mac 	"numDropped AC 1" 	0
scalar scenarioPRJP1.node[40].wlan.mac 	"numDropped AC 2" 	0
scalar scenarioPRJP1.node[40].wlan.mac 	"numDropped AC 3" 	0
scalar scenarioPRJP1.node[40].wlan.mac 	rcvdPkFromLL:count 	323810
attr interpolationmode  none
attr source  packetReceivedFromLower
attr title  "packets received from lower layer, count"
scalar scenarioPRJP1.node[40].wlan.mac 	rcvdPkFromLL:sum(packetBytes) 	82946444
attr interpolationmode  none
attr source  packetReceivedFromLower
attr title  "packets received from lower layer, sum(packetBytes)"
scalar scenarioPRJP1.node[40].wlan.mac 	sentDownPk:count 	58333
attr interpolationmode  none
attr source  packetSentToLower
attr title  "packets sent to lower layer, count"
scalar scenarioPRJP1.node[40].wlan.mac 	sentDownPk:sum(packetBytes) 	16359856
attr interpolationmode  none
attr source  packetSentToLower
attr title  "packets sent to lower layer, sum(packetBytes)"
scalar scenarioPRJP1.node[40].wlan.mac 	rcvdPkFromHL:count 	20141
attr interpolationmode  none
attr source  packetReceivedFromUpper
attr title  "packets received from higher layer, count"
scalar scenarioPRJP1.node[40].wlan.mac 	rcvdPkFromHL:sum(packetBytes) 	4132896
attr interpolationmode  none
attr source  packetReceivedFromUpper
attr title  "packets received from higher layer, sum(packetBytes)"
scalar scenarioPRJP1.node[40].wlan.mac 	passedUpPk:count 	46893
attr interpolationmode  none
attr source  packetSentToUpper
attr title  "packets passed to higher layer, count"
scalar scenarioPRJP1.node[40].wlan.mac 	passedUpPk:sum(packetBytes) 	4647004
attr interpolationmode  none
attr source  packetSentToUpper
attr title  "packets passed to higher layer, sum(packetBytes)"
statistic scenarioPRJP1.node[40].wlan.radio 	radioChannel:histogram
field count 1
field mean 3
field stddev -nan
field sum 3
field sqrsum 9
field min 3
field max 3
attr interpolationmode  sample-hold
attr source  radioChannelChanged
attr title  "Radio channel, histogram"
bin	-INF	0
bin	2	0
bin	3	1
bin	4	0
scalar scenarioPRJP1.node[40].wlan.radio 	transmissionState:count 	233332
attr interpolationmode  sample-hold
attr source  transmissionStateChanged
attr title  "Radio transmission state, count"
scalar scenarioPRJP1.node[40].wlan.radio 	receptionState:count 	807974
attr interpolationmode  sample-hold
attr source  receptionStateChanged
attr title  "Radio reception state, count"
scalar scenarioPRJP1.node[40].wlan.radio 	radioMode:count 	116668
attr interpolationmode  sample-hold
attr source  radioModeChanged
attr title  "Radio mode, count"
statistic scenarioPRJP1.node[40].wlan.radio 	symbolErrorRate:histogram
field count 0
field mean -nan
field stddev -nan
field sum 0
field sqrsum 0
field min -nan
field max -nan
attr source  symbolErrorRate
attr title  "Symbol error rate, histogram"
bin	-INF	0
bin	-0.5	0
bin	-0.46666666666667	0
bin	-0.43333333333333	0
bin	-0.4	0
bin	-0.36666666666667	0
bin	-0.33333333333333	0
bin	-0.3	0
bin	-0.26666666666667	0
bin	-0.23333333333333	0
bin	-0.2	0
bin	-0.16666666666667	0
bin	-0.13333333333333	0
bin	-0.1	0
bin	-0.066666666666667	0
bin	-0.033333333333333	0
bin	0	0
bin	0.033333333333333	0
bin	0.066666666666667	0
bin	0.1	0
bin	0.13333333333333	0
bin	0.16666666666667	0
bin	0.2	0
bin	0.23333333333333	0
bin	0.26666666666667	0
bin	0.3	0
bin	0.33333333333333	0
bin	0.36666666666667	0
bin	0.4	0
bin	0.43333333333333	0
bin	0.46666666666667	0
bin	0.5	0
statistic scenarioPRJP1.node[40].wlan.radio 	bitErrorRate:histogram
field count 0
field mean -nan
field stddev -nan
field sum 0
field sqrsum 0
field min -nan
field max -nan
attr source  bitErrorRate
attr title  "Bit error rate, histogram"
bin	-INF	0
bin	-0.5	0
bin	-0.46666666666667	0
bin	-0.43333333333333	0
bin	-0.4	0
bin	-0.36666666666667	0
bin	-0.33333333333333	0
bin	-0.3	0
bin	-0.26666666666667	0
bin	-0.23333333333333	0
bin	-0.2	0
bin	-0.16666666666667	0
bin	-0.13333333333333	0
bin	-0.1	0
bin	-0.066666666666667	0
bin	-0.033333333333333	0
bin	0	0
bin	0.033333333333333	0
bin	0.066666666666667	0
bin	0.1	0
bin	0.13333333333333	0
bin	0.16666666666667	0
bin	0.2	0
bin	0.23333333333333	0
bin	0.26666666666667	0
bin	0.3	0
bin	0.33333333333333	0
bin	0.36666666666667	0
bin	0.4	0
bin	0.43333333333333	0
bin	0.46666666666667	0
bin	0.5	0
statistic scenarioPRJP1.node[40].wlan.radio 	packetErrorRate:histogram
field count 323810
field mean 0.23249778329436
field stddev 0.41364267137456
field sum 75285.107208545
field sqrsum 72907.424496015
field min 0
field max 1
attr source  packetErrorRate
attr title  "Packet error rate, histogram"
bin	-INF	0
bin	-0.5	0
bin	-0.43333333333333	0
bin	-0.36666666666667	0
bin	-0.3	0
bin	-0.23333333333333	0
bin	-0.16666666666667	0
bin	-0.1	0
bin	-0.033333333333333	238726
bin	0.033333333333333	4032
bin	0.1	1904
bin	0.16666666666667	1301
bin	0.23333333333333	1032
bin	0.3	827
bin	0.36666666666667	773
bin	0.43333333333333	707
bin	0.5	627
bin	0.56666666666667	642
bin	0.63333333333333	593
bin	0.7	629
bin	0.76666666666667	691
bin	0.83333333333333	826
bin	0.9	1373
bin	0.96666666666667	69127
bin	1.0333333333333	0
bin	1.1	0
bin	1.1666666666667	0
bin	1.2333333333333	0
bin	1.3	0
bin	1.3666666666667	0
bin	1.4333333333333	0
bin	1.5	0
statistic scenarioPRJP1.node[40].wlan.radio 	minSNIR:histogram
field count 323810
field mean 1703.7685634464
field stddev 22563.950611005
field sum 551697298.52959
field sqrsum 1.6580144529213e+14
field min 0.00016720400503548
field max 951719.63762526
attr source  minSNIR
attr title  "Min SNIR, histogram"
bin	-INF	0
bin	-169.07869024225	0
bin	-146.49824344923	0
bin	-123.91779665621	0
bin	-101.33734986318	0
bin	-78.756903070156	0
bin	-56.176456277132	0
bin	-33.596009484107	0
bin	-11.015562691083	147333
bin	11.564884101942	43372
bin	34.145330894966	14922
bin	56.725777687991	9238
bin	79.306224481015	6963
bin	101.88667127404	5446
bin	124.46711806706	6110
bin	147.04756486009	5710
bin	169.62801165311	4767
bin	192.20845844614	4137
bin	214.78890523916	3881
bin	237.36935203219	3290
bin	259.94979882521	3006
bin	282.53024561824	2382
bin	305.11069241126	2295
bin	327.69113920428	2195
bin	350.27158599731	1770
bin	372.85203279033	1634
bin	395.43247958336	1403
bin	418.01292637638	1335
bin	440.59337316941	1131
bin	463.17381996243	1156
bin	485.75426675546	1215
bin	508.33471354848	49119
scalar scenarioPRJP1.node[40].lo0.lo 	droppedPkBitError:count 	0
attr interpolationmode  none
attr source  dropPkBitError
attr title  "packets dropped/bit error, count"
scalar scenarioPRJP1.node[40].lo0.lo 	droppedPkBitError:sum(packetBytes) 	0
attr interpolationmode  none
attr source  dropPkBitError
attr title  "packets dropped/bit error, sum(packetBytes)"
scalar scenarioPRJP1.node[40].lo0.lo 	rcvdPkFromHL:count 	96
attr interpolationmode  none
attr source  packetReceivedFromUpper
attr title  "packets received from higher layer, count"
scalar scenarioPRJP1.node[40].lo0.lo 	rcvdPkFromHL:sum(packetBytes) 	49920
attr interpolationmode  none
attr source  packetReceivedFromUpper
attr title  "packets received from higher layer, sum(packetBytes)"
scalar scenarioPRJP1.node[40].lo0.lo 	passedUpPk:count 	96
attr interpolationmode  none
attr source  packetSentToUpper
attr title  "packets passed to higher layer, count"
scalar scenarioPRJP1.node[40].lo0.lo 	passedUpPk:sum(packetBytes) 	49920
attr interpolationmode  none
attr source  packetSentToUpper
attr title  "packets passed to higher layer, sum(packetBytes)"
scalar scenarioPRJP1.node[60].app 	"Total sent" 	2604
scalar scenarioPRJP1.node[60].app 	"Total received" 	75
scalar scenarioPRJP1.node[60].app 	"Total deleted" 	4
scalar scenarioPRJP1.node[60].app 	dropPk:count 	4
attr interpolationmode  none
attr source  dropPk
attr title  "packets dropped, count"
scalar scenarioPRJP1.node[60].app 	dropPk:sum(packetBytes) 	2048
attr interpolationmode  none
attr source  dropPk
attr title  "packets dropped, sum(packetBytes)"
scalar scenarioPRJP1.node[60].app 	outOfOrderPk:count 	3
attr interpolationmode  none
attr source  outOfOrderPk
attr title  "packets received out of order, count"
scalar scenarioPRJP1.node[60].app 	outOfOrderPk:sum(packetBytes) 	1536
attr interpolationmode  none
attr source  outOfOrderPk
attr title  "packets received out of order, sum(packetBytes)"
scalar scenarioPRJP1.node[60].app 	rcvdPk:count 	75
attr interpolationmode  none
attr source  rcvdPk
attr title  "packets received, count"
scalar scenarioPRJP1.node[60].app 	rcvdPk:sum(packetBytes) 	38400
attr interpolationmode  none
attr source  rcvdPk
attr title  "packets received, sum(packetBytes)"
statistic scenarioPRJP1.node[60].app 	endToEndDelay:histogram
field count 75
field mean 1.0863328657488
field stddev 3.2640445672352
field sum 81.474964931162
field sqrsum 876.90396547087
field min 0.001016011007
field max 17.672294062586
attr interpolationmode  none
attr source  messageAge(rcvdPk)
attr title  "delay, histogram"
attr unit  s
bin	-INF	0
bin	-8.8346230147825	0
bin	-7.6565378113439	0
bin	-6.4784526079053	0
bin	-5.3003674044667	0
bin	-4.1222822010281	0
bin	-2.9441969975895	0
bin	-1.7661117941509	0
bin	-0.5880265907123	60
bin	0.5900586127263	5
bin	1.7681438161649	4
bin	2.9462290196035	1
bin	4.1243142230421	0
bin	5.3023994264807	0
bin	6.4804846299193	0
bin	7.6585698333579	3
bin	8.8366550367965	0
bin	10.014740240235	0
bin	11.192825443674	0
bin	12.370910647112	0
bin	13.548995850551	0
bin	14.72708105399	0
bin	15.905166257428	0
bin	17.083251460867	2
bin	18.261336664305	0
bin	19.439421867744	0
bin	20.617507071182	0
bin	21.795592274621	0
bin	22.97367747806	0
bin	24.151762681498	0
bin	25.329847884937	0
bin	26.507933088376	0
scalar scenarioPRJP1.node[60].app 	sentPk:count 	2604
attr interpolationmode  none
attr source  sentPk
attr title  "packets sent, count"
scalar scenarioPRJP1.node[60].app 	sentPk:sum(packetBytes) 	1333248
attr interpolationmode  none
attr source  sentPk
attr title  "packets sent, sum(packetBytes)"
scalar scenarioPRJP1.node[60].udp 	droppedPkBadChecksum:count 	0
attr interpolationmode  none
attr title  "packets dropped (checksum error), count"
scalar scenarioPRJP1.node[60].udp 	droppedPkWrongPort:count 	0
attr interpolationmode  none
attr title  "packets dropped (wrong port), count"
scalar scenarioPRJP1.node[60].udp 	passedUpPk:count 	82
attr interpolationmode  none
attr title  "packets passed up, count"
scalar scenarioPRJP1.node[60].udp 	rcvdPk:count 	82
attr interpolationmode  none
attr source  rcvdPk
attr title  "packets received, count"
scalar scenarioPRJP1.node[60].udp 	rcvdPk:sum(packetBytes) 	42640
attr interpolationmode  none
attr source  rcvdPk
attr title  "packets received, sum(packetBytes)"
scalar scenarioPRJP1.node[60].udp 	sentPk:count 	2604
attr interpolationmode  none
attr source  sentPk
attr title  "packets sent, count"
scalar scenarioPRJP1.node[60].udp 	sentPk:sum(packetBytes) 	1354080
attr interpolationmode  none
attr source  sentPk
attr title  "packets sent, sum(packetBytes)"
scalar scenarioPRJP1.node[60].networkLayer.arp 	failedARPResolution:count 	54
attr title  "ARP failed resolutions, count"
scalar scenarioPRJP1.node[60].networkLayer.arp 	completedARPResolution:count 	1385
attr title  "ARP completed resolutions, count"
scalar scenarioPRJP1.node[60].networkLayer.arp 	initiatedARPResolution:count 	120
attr title  "ARP initiated resolutions, count"
scalar scenarioPRJP1.node[60].networkLayer.arp 	sentReply:count 	55
attr title  "ARP replies sent, count"
scalar scenarioPRJP1.node[60].networkLayer.arp 	sentReq:count 	259
attr title  "ARP request sent, count"
scalar scenarioPRJP1.node[60].mobility 	startTime 	7.3
scalar scenarioPRJP1.node[60].mobility 	totalTime 	942.7
scalar scenarioPRJP1.node[60].mobility 	stopTime 	950
scalar scenarioPRJP1.node[60].mobility 	minSpeed 	2.4756851504448e-13
scalar scenarioPRJP1.node[60].mobility 	maxSpeed 	16.114983030625
scalar scenarioPRJP1.node[60].mobility 	totalDistance 	9317.5412784323
scalar scenarioPRJP1.node[60].mobility 	totalCO2Emission 	2376.0499112551
scalar scenarioPRJP1.node[60].wlan.mgmt 	dataQueueLen:max 	6
attr interpolationmode  sample-hold
attr title  "data queue length, max"
scalar scenarioPRJP1.node[60].wlan.mgmt 	dataQueueLen:timeavg 	0
attr interpolationmode  sample-hold
attr title  "data queue length, timeavg"
scalar scenarioPRJP1.node[60].wlan.mgmt 	dropPkByQueue:count 	0
attr interpolationmode  none
attr source  dropPkByQueue
attr title  "packets dropped by queue, count"
scalar scenarioPRJP1.node[60].wlan.mgmt 	dropPkByQueue:sum(packetBytes) 	0
attr interpolationmode  none
attr source  dropPkByQueue
attr title  "packets dropped by queue, sum(packetBytes)"
scalar scenarioPRJP1.node[60].wlan.mac 	"number of received packets" 	7376
scalar scenarioPRJP1.node[60].wlan.mac 	"number of collisions" 	69258
scalar scenarioPRJP1.node[60].wlan.mac 	"number of internal collisions" 	0
scalar scenarioPRJP1.node[60].wlan.mac 	"number of retry for AC 0" 	20039
scalar scenarioPRJP1.node[60].wlan.mac 	"number of retry for AC 1" 	0
scalar scenarioPRJP1.node[60].wlan.mac 	"number of retry for AC 2" 	0
scalar scenarioPRJP1.node[60].wlan.mac 	"number of retry for AC 3" 	0
scalar scenarioPRJP1.node[60].wlan.mac 	"sent and received bits" 	15581920
scalar scenarioPRJP1.node[60].wlan.mac 	"sent packet within AC 0" 	3347
scalar scenarioPRJP1.node[60].wlan.mac 	"sent packet within AC 1" 	0
scalar scenarioPRJP1.node[60].wlan.mac 	"sent packet within AC 2" 	0
scalar scenarioPRJP1.node[60].wlan.mac 	"sent packet within AC 3" 	0
scalar scenarioPRJP1.node[60].wlan.mac 	"sent in TXOP " 	0
scalar scenarioPRJP1.node[60].wlan.mac 	"sentWithoutRetry AC 0" 	2930
scalar scenarioPRJP1.node[60].wlan.mac 	"sentWithoutRetry AC 1" 	0
scalar scenarioPRJP1.node[60].wlan.mac 	"sentWithoutRetry AC 2" 	0
scalar scenarioPRJP1.node[60].wlan.mac 	"sentWithoutRetry AC 3" 	0
scalar scenarioPRJP1.node[60].wlan.mac 	"numGivenUp AC 0" 	3171
scalar scenarioPRJP1.node[60].wlan.mac 	"numGivenUp AC 1" 	0
scalar scenarioPRJP1.node[60].wlan.mac 	"numGivenUp AC 2" 	0
scalar scenarioPRJP1.node[60].wlan.mac 	"numGivenUp AC 3" 	0
scalar scenarioPRJP1.node[60].wlan.mac 	"numDropped AC 0" 	0
scalar scenarioPRJP1.node[60].wlan.mac 	"numDropped AC 1" 	0
scalar scenarioPRJP1.node[60].wlan.mac 	"numDropped AC 2" 	0
scalar scenarioPRJP1.node[60].wlan.mac 	"numDropped AC 3" 	0
scalar scenarioPRJP1.node[60].wlan.mac 	rcvdPkFromLL:count 	242314
attr interpolationmode  none
attr source  packetReceivedFromLower
attr title  "packets received from lower layer, count"
scalar scenarioPRJP1.node[60].wlan.mac 	rcvdPkFromLL:sum(packetBytes) 	64643630
attr interpolationmode  none
attr source  packetReceivedFromLower
attr title  "packets received from lower layer, sum(packetBytes)"
scalar scenarioPRJP1.node[60].wlan.mac 	sentDownPk:count 	45303
attr interpolationmode  none
attr source  packetSentToLower
attr title  "packets sent to lower layer, count"
scalar scenarioPRJP1.node[60].wlan.mac 	sentDownPk:sum(packetBytes) 	11473472
attr interpolationmode  none
attr source  packetSentToLower
attr title  "packets sent to lower layer, sum(packetBytes)"
scalar scenarioPRJP1.node[60].wlan.mac 	rcvdPkFromHL:count 	17888
attr interpolationmode  none
attr source  packetReceivedFromUpper
attr title  "packets received from higher layer, count"
scalar scenarioPRJP1.node[60].wlan.mac 	rcvdPkFromHL:sum(packetBytes) 	3226944
attr interpolationmode  none
attr source  packetReceivedFromUpper
attr title  "packets received from higher layer, sum(packetBytes)"
scalar scenarioPRJP1.node[60].wlan.mac 	passedUpPk:count 	36415
attr interpolationmode  none
attr source  packetSentToUpper
attr title  "packets passed to higher layer, count"
scalar scenarioPRJP1.node[60].wlan.mac 	passedUpPk:sum(packetBytes) 	3333216
attr interpolationmode  none
attr source  packetSentToUpper
attr title  "packets passed to higher layer, sum(packetBytes)"
statistic scenarioPRJP1.node[60].wlan.radio 	radioChannel:histogram
field count 1
field mean 3
field stddev -nan
field sum 3
field sqrsum 9
field min 3
field max 3
attr interpolationmode  sample-hold
attr source  radioChannelChanged
attr title  "Radio channel, histogram"
bin	-INF	0
bin	2	0
bin	3	1
bin	4	0
scalar scenarioPRJP1.node[60].wlan.radio 	transmissionState:count 	181212
attr interpolationmode  sample-hold
attr source  transmissionStateChanged
attr title  "Radio transmission state, count"
scalar scenarioPRJP1.node[60].wlan.radio 	receptionState:count 	616652
attr interpolationmode  sample-hold
attr source  receptionStateChanged
attr title  "Radio reception state, count"
scalar scenarioPRJP1.node[60].wlan.radio 	radioMode:count 	90608
attr interpolationmode  sample-hold
attr source  radioModeChanged
attr title  "Radio mode, count"
statistic scenarioPRJP1.node[60].wlan.radio 	symbolErrorRate:histogram
field count 0
field mean -nan
field stddev -nan
field sum 0
field sqrsum 0
field min -nan
field max -nan
attr source  symbolErrorRate
attr title  "Symbol error rate, histogram"
bin	-INF	0
bin	-0.5	0
bin	-0.46666666666667	0
bin	-0.43333333333333	0
bin	-0.4	0
bin	-0.36666666666667	0
bin	-0.33333333333333	0
bin	-0.3	0
bin	-0.26666666666667	0
bin	-0.23333333333333	0
bin	-0.2	0
bin	-0.16666666666667	0
bin	-0.13333333333333	0
bin	-0.1	0
bin	-0.066666666666667	0
bin	-0.033333333333333	0
bin	0	0
bin	0.033333333333333	0
bin	0.066666666666667	0
bin	0.1	0
bin	0.13333333333333	0
bin	0.16666666666667	0
bin	0.2	0
bin	0.23333333333333	0
bin	0.26666666666667	0
bin	0.3	0
bin	0.33333333333333	0
bin	0.36666666666667	0
bin	0.4	0
bin	0.43333333333333	0
bin	0.46666666666667	0
bin	0.5	0
statistic scenarioPRJP1.node[60].wlan.radio 	bitErrorRate:histogram
field count 0
field mean -nan
field stddev -nan
field sum 0
field sqrsum 0
field min -nan
field max -nan
attr source  bitErrorRate
attr title  "Bit error rate, histogram"
bin	-INF	0
bin	-0.5	0
bin	-0.46666666666667	0
bin	-0.43333333333333	0
bin	-0.4	0
bin	-0.36666666666667	0
bin	-0.33333333333333	0
bin	-0.3	0
bin	-0.26666666666667	0
bin	-0.23333333333333	0
bin	-0.2	0
bin	-0.16666666666667	0
bin	-0.13333333333333	0
bin	-0.1	0
bin	-0.066666666666667	0
bin	-0.033333333333333	0
bin	0	0
bin	0.033333333333333	0
bin	0.066666666666667	0
bin	0.1	0
bin	0.13333333333333	0
bin	0.16666666666667	0
bin	0.2	0
bin	0.23333333333333	0
bin	0.26666666666667	0
bin	0.3	0
bin	0.33333333333333	0
bin	0.36666666666667	0
bin	0.4	0
bin	0.43333333333333	0
bin	0.46666666666667	0
bin	0.5	0
statistic scenarioPRJP1.node[60].wlan.radio 	packetErrorRate:histogram
field count 242314
field mean 0.26675693255391
field stddev 0.43274189331458
field sum 64638.939354868
field sqrsum 62619.761489348
field min 0
field max 1
attr source  packetErrorRate
attr title  "Packet error rate, histogram"
bin	-INF	0
bin	-0.5	0
bin	-0.43333333333333	0
bin	-0.36666666666667	0
bin	-0.3	0
bin	-0.23333333333333	0
bin	-0.16666666666667	0
bin	-0.1	0
bin	-0.033333333333333	169344
bin	0.033333333333333	3430
bin	0.1	1664
bin	0.16666666666667	1117
bin	0.23333333333333	858
bin	0.3	703
bin	0.36666666666667	628
bin	0.43333333333333	555
bin	0.5	544
bin	0.56666666666667	517
bin	0.63333333333333	544
bin	0.7	560
bin	0.76666666666667	573
bin	0.83333333333333	731
bin	0.9	1132
bin	0.96666666666667	59414
bin	1.0333333333333	0
bin	1.1	0
bin	1.1666666666667	0
bin	1.2333333333333	0
bin	1.3	0
bin	1.3666666666667	0
bin	1.4333333333333	0
bin	1.5	0
statistic scenarioPRJP1.node[60].wlan.radio 	minSNIR:histogram
field count 242314
field mean 2946.403919163
field stddev 36746.934144817
field sum 713954919.26807
field sqrsum 3.2930785001469e+14
field min 0.00016859918994896
field max 959513.81200414
attr source  minSNIR
attr title  "Min SNIR, histogram"
bin	-INF	0
bin	-641.76390056268	0
bin	-555.92110326526	0
bin	-470.07830596784	0
bin	-384.23550867042	0
bin	-298.392711373	0
bin	-212.54991407558	0
bin	-126.70711677815	0
bin	-40.864319480734	164253
bin	44.978477816686	21114
bin	130.82127511411	12495
bin	216.66407241153	6859
bin	302.50686970895	4337
bin	388.34966700637	2564
bin	474.19246430379	1971
bin	560.03526160121	1625
bin	645.87805889863	1327
bin	731.72085619605	1120
bin	817.56365349347	1050
bin	903.40645079089	820
bin	989.24924808831	770
bin	1075.0920453857	667
bin	1160.9348426832	548
bin	1246.7776399806	511
bin	1332.620437278	431
bin	1418.4632345754	515
bin	1504.3060318728	473
bin	1590.1488291703	396
bin	1675.9916264677	345
bin	1761.8344237651	332
bin	1847.6772210625	311
bin	1933.5200183599	17480
scalar scenarioPRJP1.node[60].lo0.lo 	droppedPkBitError:count 	0
attr interpolationmode  none
attr source  dropPkBitError
attr title  "packets dropped/bit error, count"
scalar scenarioPRJP1.node[60].lo0.lo 	droppedPkBitError:sum(packetBytes) 	0
attr interpolationmode  none
attr source  dropPkBitError
attr title  "packets dropped/bit error, sum(packetBytes)"
scalar scenarioPRJP1.node[60].lo0.lo 	rcvdPkFromHL:count 	82
attr interpolationmode  none
attr source  packetReceivedFromUpper
attr title  "packets received from higher layer, count"
scalar scenarioPRJP1.node[60].lo0.lo 	rcvdPkFromHL:sum(packetBytes) 	42640
attr interpolationmode  none
attr source  packetReceivedFromUpper
attr title  "packets received from higher layer, sum(packetBytes)"
scalar scenarioPRJP1.node[60].lo0.lo 	passedUpPk:count 	82
attr interpolationmode  none
attr source  packetSentToUpper
attr title  "packets passed to higher layer, count"
scalar scenarioPRJP1.node[60].lo0.lo 	passedUpPk:sum(packetBytes) 	42640
attr interpolationmode  none
attr source  packetSentToUpper
attr title  "packets passed to higher layer, sum(packetBytes)"
scalar scenarioPRJP1.node[80].app 	"Total sent" 	2612
scalar scenarioPRJP1.node[80].app 	"Total received" 	98
scalar scenarioPRJP1.node[80].app 	"Total deleted" 	2
scalar scenarioPRJP1.node[80].app 	dropPk:count 	2
attr interpolationmode  none
attr source  dropPk
attr title  "packets dropped, count"
scalar scenarioPRJP1.node[80].app 	dropPk:sum(packetBytes) 	1024
attr interpolationmode  none
attr source  dropPk
attr title  "packets dropped, sum(packetBytes)"
scalar scenarioPRJP1.node[80].app 	outOfOrderPk:count 	5
attr interpolationmode  none
attr source  outOfOrderPk
attr title  "packets received out of order, count"
scalar scenarioPRJP1.node[80].app 	outOfOrderPk:sum(packetBytes) 	2560
attr interpolationmode  none
attr source  outOfOrderPk
attr title  "packets received out of order, sum(packetBytes)"
scalar scenarioPRJP1.node[80].app 	rcvdPk:count 	98
attr interpolationmode  none
attr source  rcvdPk
attr title  "packets received, count"
scalar scenarioPRJP1.node[80].app 	rcvdPk:sum(packetBytes) 	50176
attr interpolationmode  none
attr source  rcvdPk
attr title  "packets received, sum(packetBytes)"
statistic scenarioPRJP1.node[80].app 	endToEndDelay:histogram
field count 98
field mean 0.71471388378095
field stddev 2.430585563946
field sum 70.041960610533
field sqrsum 623.11134151087
field min 0.000964011007
field max 15.615993627592
attr interpolationmode  none
attr source  messageAge(rcvdPk)
attr title  "delay, histogram"
attr unit  s
bin	-INF	0
bin	-7.8065507972855	0
bin	-6.7655488228465	0
bin	-5.7245468484075	0
bin	-4.6835448739685	0
bin	-3.6425428995295	0
bin	-2.6015409250905	0
bin	-1.5605389506515	0
bin	-0.5195369762125	82
bin	0.5214649982265	10
bin	1.5624669726655	0
bin	2.6034689471045	1
bin	3.6444709215435	1
bin	4.6854728959825	0
bin	5.7264748704215	0
bin	6.7674768448605	1
bin	7.8084788192995	0
bin	8.8494807937385	1
bin	9.8904827681775	0
bin	10.931484742617	0
bin	11.972486717055	0
bin	13.013488691495	1
bin	14.054490665933	0
bin	15.095492640373	1
bin	16.136494614812	0
bin	17.17749658925	0
bin	18.21849856369	0
bin	19.259500538128	0
bin	20.300502512568	0
bin	21.341504487006	0
bin	22.382506461446	0
bin	23.423508435885	0
scalar scenarioPRJP1.node[80].app 	sentPk:count 	2612
attr interpolationmode  none
attr source  sentPk
attr title  "packets sent, count"
scalar scenarioPRJP1.node[80].app 	sentPk:sum(packetBytes) 	1337344
attr interpolationmode  none
attr source  sentPk
attr title  "packets sent, sum(packetBytes)"
scalar scenarioPRJP1.node[80].udp 	droppedPkBadChecksum:count 	0
attr interpolationmode  none
attr title  "packets dropped (checksum error), count"
scalar scenarioPRJP1.node[80].udp 	droppedPkWrongPort:count 	0
attr interpolationmode  none
attr title  "packets dropped (wrong port), count"
scalar scenarioPRJP1.node[80].udp 	passedUpPk:count 	105
attr interpolationmode  none
attr title  "packets passed up, count"
scalar scenarioPRJP1.node[80].udp 	rcvdPk:count 	105
attr interpolationmode  none
attr source  rcvdPk
attr title  "packets received, count"
scalar scenarioPRJP1.node[80].udp 	rcvdPk:sum(packetBytes) 	54600
attr interpolationmode  none
attr source  rcvdPk
attr title  "packets received, sum(packetBytes)"
scalar scenarioPRJP1.node[80].udp 	sentPk:count 	2612
attr interpolationmode  none
attr source  sentPk
attr title  "packets sent, count"
scalar scenarioPRJP1.node[80].udp 	sentPk:sum(packetBytes) 	1358240
attr interpolationmode  none
attr source  sentPk
attr title  "packets sent, sum(packetBytes)"
scalar scenarioPRJP1.node[80].networkLayer.arp 	failedARPResolution:count 	153
attr title  "ARP failed resolutions, count"
scalar scenarioPRJP1.node[80].networkLayer.arp 	completedARPResolution:count 	2258
attr title  "ARP completed resolutions, count"
scalar scenarioPRJP1.node[80].networkLayer.arp 	initiatedARPResolution:count 	236
attr title  "ARP initiated resolutions, count"
scalar scenarioPRJP1.node[80].networkLayer.arp 	sentReply:count 	70
attr title  "ARP replies sent, count"
scalar scenarioPRJP1.node[80].networkLayer.arp 	sentReq:count 	574
attr title  "ARP request sent, count"
scalar scenarioPRJP1.node[80].mobility 	startTime 	9.7
scalar scenarioPRJP1.node[80].mobility 	totalTime 	940.3
scalar scenarioPRJP1.node[80].mobility 	stopTime 	950
scalar scenarioPRJP1.node[80].mobility 	minSpeed 	2.4754631877383e-13
scalar scenarioPRJP1.node[80].mobility 	maxSpeed 	19.118748445957
scalar scenarioPRJP1.node[80].mobility 	totalDistance 	8536.0557524351
scalar scenarioPRJP1.node[80].mobility 	totalCO2Emission 	2546.6842262147
scalar scenarioPRJP1.node[80].wlan.mgmt 	dataQueueLen:max 	100
attr interpolationmode  sample-hold
attr title  "data queue length, max"
scalar scenarioPRJP1.node[80].wlan.mgmt 	dataQueueLen:timeavg 	0.32948699894148
attr interpolationmode  sample-hold
attr title  "data queue length, timeavg"
scalar scenarioPRJP1.node[80].wlan.mgmt 	dropPkByQueue:count 	27
attr interpolationmode  none
attr source  dropPkByQueue
attr title  "packets dropped by queue, count"
scalar scenarioPRJP1.node[80].wlan.mgmt 	dropPkByQueue:sum(packetBytes) 	6520
attr interpolationmode  none
attr source  dropPkByQueue
attr title  "packets dropped by queue, sum(packetBytes)"
scalar scenarioPRJP1.node[80].wlan.mac 	"number of received packets" 	9524
scalar scenarioPRJP1.node[80].wlan.mac 	"number of collisions" 	93706
scalar scenarioPRJP1.node[80].wlan.mac 	"number of internal collisions" 	0
scalar scenarioPRJP1.node[80].wlan.mac 	"number of retry for AC 0" 	28252
scalar scenarioPRJP1.node[80].wlan.mac 	"number of retry for AC 1" 	0
scalar scenarioPRJP1.node[80].wlan.mac 	"number of retry for AC 2" 	0
scalar scenarioPRJP1.node[80].wlan.mac 	"number of retry for AC 3" 	0
scalar scenarioPRJP1.node[80].wlan.mac 	"sent and received bits" 	16217792
scalar scenarioPRJP1.node[80].wlan.mac 	"sent packet within AC 0" 	5038
scalar scenarioPRJP1.node[80].wlan.mac 	"sent packet within AC 1" 	0
scalar scenarioPRJP1.node[80].wlan.mac 	"sent packet within AC 2" 	0
scalar scenarioPRJP1.node[80].wlan.mac 	"sent packet within AC 3" 	0
scalar scenarioPRJP1.node[80].wlan.mac 	"sent in TXOP " 	0
scalar scenarioPRJP1.node[80].wlan.mac 	"sentWithoutRetry AC 0" 	4403
scalar scenarioPRJP1.node[80].wlan.mac 	"sentWithoutRetry AC 1" 	0
scalar scenarioPRJP1.node[80].wlan.mac 	"sentWithoutRetry AC 2" 	0
scalar scenarioPRJP1.node[80].wlan.mac 	"sentWithoutRetry AC 3" 	0
scalar scenarioPRJP1.node[80].wlan.mac 	"numGivenUp AC 0" 	4464
scalar scenarioPRJP1.node[80].wlan.mac 	"numGivenUp AC 1" 	0
scalar scenarioPRJP1.node[80].wlan.mac 	"numGivenUp AC 2" 	0
scalar scenarioPRJP1.node[80].wlan.mac 	"numGivenUp AC 3" 	0
scalar scenarioPRJP1.node[80].wlan.mac 	"numDropped AC 0" 	320
scalar scenarioPRJP1.node[80].wlan.mac 	"numDropped AC 1" 	0
scalar scenarioPRJP1.node[80].wlan.mac 	"numDropped AC 2" 	0
scalar scenarioPRJP1.node[80].wlan.mac 	"numDropped AC 3" 	0
scalar scenarioPRJP1.node[80].wlan.mac 	rcvdPkFromLL:count 	351151
attr interpolationmode  none
attr source  packetReceivedFromLower
attr title  "packets received from lower layer, count"
scalar scenarioPRJP1.node[80].wlan.mac 	rcvdPkFromLL:sum(packetBytes) 	94767274
attr interpolationmode  none
attr source  packetReceivedFromLower
attr title  "packets received from lower layer, sum(packetBytes)"
scalar scenarioPRJP1.node[80].wlan.mac 	sentDownPk:count 	55762
attr interpolationmode  none
attr source  packetSentToLower
attr title  "packets sent to lower layer, count"
scalar scenarioPRJP1.node[80].wlan.mac 	sentDownPk:sum(packetBytes) 	15692484
attr interpolationmode  none
attr source  packetSentToLower
attr title  "packets sent to lower layer, sum(packetBytes)"
scalar scenarioPRJP1.node[80].wlan.mac 	rcvdPkFromHL:count 	18306
attr interpolationmode  none
attr source  packetReceivedFromUpper
attr title  "packets received from higher layer, count"
scalar scenarioPRJP1.node[80].wlan.mac 	rcvdPkFromHL:sum(packetBytes) 	3929332
attr interpolationmode  none
attr source  packetReceivedFromUpper
attr title  "packets received from higher layer, sum(packetBytes)"
scalar scenarioPRJP1.node[80].wlan.mac 	passedUpPk:count 	38864
attr interpolationmode  none
attr source  packetSentToUpper
attr title  "packets passed to higher layer, count"
scalar scenarioPRJP1.node[80].wlan.mac 	passedUpPk:sum(packetBytes) 	3994320
attr interpolationmode  none
attr source  packetSentToUpper
attr title  "packets passed to higher layer, sum(packetBytes)"
statistic scenarioPRJP1.node[80].wlan.radio 	radioChannel:histogram
field count 1
field mean 3
field stddev -nan
field sum 3
field sqrsum 9
field min 3
field max 3
attr interpolationmode  sample-hold
attr source  radioChannelChanged
attr title  "Radio channel, histogram"
bin	-INF	0
bin	2	0
bin	3	1
bin	4	0
scalar scenarioPRJP1.node[80].wlan.radio 	transmissionState:count 	223048
attr interpolationmode  sample-hold
attr source  transmissionStateChanged
attr title  "Radio transmission state, count"
scalar scenarioPRJP1.node[80].wlan.radio 	receptionState:count 	867826
attr interpolationmode  sample-hold
attr source  receptionStateChanged
attr title  "Radio reception state, count"
scalar scenarioPRJP1.node[80].wlan.radio 	radioMode:count 	111526
attr interpolationmode  sample-hold
attr source  radioModeChanged
attr title  "Radio mode, count"
statistic scenarioPRJP1.node[80].wlan.radio 	symbolErrorRate:histogram
field count 0
field mean -nan
field stddev -nan
field sum 0
field sqrsum 0
field min -nan
field max -nan
attr source  symbolErrorRate
attr title  "Symbol error rate, histogram"
bin	-INF	0
bin	-0.5	0
bin	-0.46666666666667	0
bin	-0.43333333333333	0
bin	-0.4	0
bin	-0.36666666666667	0
bin	-0.33333333333333	0
bin	-0.3	0
bin	-0.26666666666667	0
bin	-0.23333333333333	0
bin	-0.2	0
bin	-0.16666666666667	0
bin	-0.13333333333333	0
bin	-0.1	0
bin	-0.066666666666667	0
bin	-0.033333333333333	0
bin	0	0
bin	0.033333333333333	0
bin	0.066666666666667	0
bin	0.1	0
bin	0.13333333333333	0
bin	0.16666666666667	0
bin	0.2	0
bin	0.23333333333333	0
bin	0.26666666666667	0
bin	0.3	0
bin	0.33333333333333	0
bin	0.36666666666667	0
bin	0.4	0
bin	0.43333333333333	0
bin	0.46666666666667	0
bin	0.5	0
statistic scenarioPRJP1.node[80].wlan.radio 	bitErrorRate:histogram
field count 0
field mean -nan
field stddev -nan
field sum 0
field sqrsum 0
field min -nan
field max -nan
attr source  bitErrorRate
attr title  "Bit error rate, histogram"
bin	-INF	0
bin	-0.5	0
bin	-0.46666666666667	0
bin	-0.43333333333333	0
bin	-0.4	0
bin	-0.36666666666667	0
bin	-0.33333333333333	0
bin	-0.3	0
bin	-0.26666666666667	0
bin	-0.23333333333333	0
bin	-0.2	0
bin	-0.16666666666667	0
bin	-0.13333333333333	0
bin	-0.1	0
bin	-0.066666666666667	0
bin	-0.033333333333333	0
bin	0	0
bin	0.033333333333333	0
bin	0.066666666666667	0
bin	0.1	0
bin	0.13333333333333	0
bin	0.16666666666667	0
bin	0.2	0
bin	0.23333333333333	0
bin	0.26666666666667	0
bin	0.3	0
bin	0.33333333333333	0
bin	0.36666666666667	0
bin	0.4	0
bin	0.43333333333333	0
bin	0.46666666666667	0
bin	0.5	0
statistic scenarioPRJP1.node[80].wlan.radio 	packetErrorRate:histogram
field count 351151
field mean 0.25171019601961
field stddev 0.42529304066298
field sum 88388.28704248
field sqrsum 85762.198006028
field min 0
field max 1
attr source  packetErrorRate
attr title  "Packet error rate, histogram"
bin	-INF	0
bin	-0.5	0
bin	-0.43333333333333	0
bin	-0.36666666666667	0
bin	-0.3	0
bin	-0.23333333333333	0
bin	-0.16666666666667	0
bin	-0.1	0
bin	-0.033333333333333	252021
bin	0.033333333333333	4404
bin	0.1	2049
bin	0.16666666666667	1423
bin	0.23333333333333	1149
bin	0.3	974
bin	0.36666666666667	853
bin	0.43333333333333	770
bin	0.5	714
bin	0.56666666666667	649
bin	0.63333333333333	669
bin	0.7	695
bin	0.76666666666667	780
bin	0.83333333333333	934
bin	0.9	1396
bin	0.96666666666667	81671
bin	1.0333333333333	0
bin	1.1	0
bin	1.1666666666667	0
bin	1.2333333333333	0
bin	1.3	0
bin	1.3666666666667	0
bin	1.4333333333333	0
bin	1.5	0
statistic scenarioPRJP1.node[80].wlan.radio 	minSNIR:histogram
field count 351151
field mean 2704.7123751135
field stddev 34411.984664104
field sum 949762455.23346
field sqrsum 4.1839528764078e+14
field min 0.00016870118294278
field max 914094.81544447
attr source  minSNIR
attr title  "Min SNIR, histogram"
bin	-INF	0
bin	-219.18112992776	0
bin	-189.72929658178	0
bin	-160.27746323581	0
bin	-130.82562988984	0
bin	-101.37379654387	0
bin	-71.921963197904	0
bin	-42.470129851934	0
bin	-13.018296505964	184259
bin	16.433536840006	37634
bin	45.885370185977	16068
bin	75.337203531947	10297
bin	104.78903687792	8337
bin	134.24087022389	8818
bin	163.69270356986	7182
bin	193.14453691583	5761
bin	222.5963702618	4617
bin	252.04820360777	4107
bin	281.50003695374	3407
bin	310.95187029971	3001
bin	340.40370364568	2233
bin	369.85553699165	1955
bin	399.30737033762	1754
bin	428.75920368359	1496
bin	458.21103702956	1367
bin	487.66287037553	1451
bin	517.1147037215	1327
bin	546.56653706747	1194
bin	576.01837041344	1120
bin	605.47020375941	1014
bin	634.92203710538	917
bin	664.37387045135	41835
scalar scenarioPRJP1.node[80].lo0.lo 	droppedPkBitError:count 	0
attr interpolationmode  none
attr source  dropPkBitError
attr title  "packets dropped/bit error, count"
scalar scenarioPRJP1.node[80].lo0.lo 	droppedPkBitError:sum(packetBytes) 	0
attr interpolationmode  none
attr source  dropPkBitError
attr title  "packets dropped/bit error, sum(packetBytes)"
scalar scenarioPRJP1.node[80].lo0.lo 	rcvdPkFromHL:count 	105
attr interpolationmode  none
attr source  packetReceivedFromUpper
attr title  "packets received from higher layer, count"
scalar scenarioPRJP1.node[80].lo0.lo 	rcvdPkFromHL:sum(packetBytes) 	54600
attr interpolationmode  none
attr source  packetReceivedFromUpper
attr title  "packets received from higher layer, sum(packetBytes)"
scalar scenarioPRJP1.node[80].lo0.lo 	passedUpPk:count 	105
attr interpolationmode  none
attr source  packetSentToUpper
attr title  "packets passed to higher layer, count"
scalar scenarioPRJP1.node[80].lo0.lo 	passedUpPk:sum(packetBytes) 	54600
attr interpolationmode  none
attr source  packetSentToUpper
attr title  "packets passed to higher layer, sum(packetBytes)"
scalar scenarioPRJP1.node[1].app 	"Total sent" 	2609
scalar scenarioPRJP1.node[1].app 	"Total received" 	99
scalar scenarioPRJP1.node[1].app 	"Total deleted" 	2
scalar scenarioPRJP1.node[1].app 	dropPk:count 	2
attr interpolationmode  none
attr source  dropPk
attr title  "packets dropped, count"
scalar scenarioPRJP1.node[1].app 	dropPk:sum(packetBytes) 	1024
attr interpolationmode  none
attr source  dropPk
attr title  "packets dropped, sum(packetBytes)"
scalar scenarioPRJP1.node[1].app 	outOfOrderPk:count 	5
attr interpolationmode  none
attr source  outOfOrderPk
attr title  "packets received out of order, count"
scalar scenarioPRJP1.node[1].app 	outOfOrderPk:sum(packetBytes) 	2560
attr interpolationmode  none
attr source  outOfOrderPk
attr title  "packets received out of order, sum(packetBytes)"
scalar scenarioPRJP1.node[1].app 	rcvdPk:count 	99
attr interpolationmode  none
attr source  rcvdPk
attr title  "packets received, count"
scalar scenarioPRJP1.node[1].app 	rcvdPk:sum(packetBytes) 	50688
attr interpolationmode  none
attr source  rcvdPk
attr title  "packets received, sum(packetBytes)"
statistic scenarioPRJP1.node[1].app 	endToEndDelay:histogram
field count 99
field mean 1.1536383279033
field stddev 3.1097776621066
field sum 114.21019446243
field sqrsum 1079.4875343274
field min 0.001111218601
field max 16.224005625658
attr interpolationmode  none
attr source  messageAge(rcvdPk)
attr title  "delay, histogram"
attr unit  s
bin	-INF	0
bin	-8.1103359849275	0
bin	-7.0288096911237	0
bin	-5.9472833973199	0
bin	-4.8657571035161	0
bin	-3.7842308097123	0
bin	-2.7027045159085	0
bin	-1.6211782221047	0
bin	-0.5396519283009	74
bin	0.5418743655029	13
bin	1.6234006593067	2
bin	2.7049269531105	0
bin	3.7864532469143	2
bin	4.8679795407181	1
bin	5.9495058345219	1
bin	7.0310321283257	0
bin	8.1125584221295	3
bin	9.1940847159333	0
bin	10.275611009737	0
bin	11.357137303541	0
bin	12.438663597345	0
bin	13.520189891149	0
bin	14.601716184952	2
bin	15.683242478756	1
bin	16.76476877256	0
bin	17.846295066364	0
bin	18.927821360167	0
bin	20.009347653971	0
bin	21.090873947775	0
bin	22.172400241579	0
bin	23.253926535383	0
bin	24.335452829186	0
scalar scenarioPRJP1.node[1].app 	sentPk:count 	2609
attr interpolationmode  none
attr source  sentPk
attr title  "packets sent, count"
scalar scenarioPRJP1.node[1].app 	sentPk:sum(packetBytes) 	1335808
attr interpolationmode  none
attr source  sentPk
attr title  "packets sent, sum(packetBytes)"
scalar scenarioPRJP1.node[1].udp 	droppedPkBadChecksum:count 	0
attr interpolationmode  none
attr title  "packets dropped (checksum error), count"
scalar scenarioPRJP1.node[1].udp 	droppedPkWrongPort:count 	0
attr interpolationmode  none
attr title  "packets dropped (wrong port), count"
scalar scenarioPRJP1.node[1].udp 	passedUpPk:count 	106
attr interpolationmode  none
attr title  "packets passed up, count"
scalar scenarioPRJP1.node[1].udp 	rcvdPk:count 	106
attr interpolationmode  none
attr source  rcvdPk
attr title  "packets received, count"
scalar scenarioPRJP1.node[1].udp 	rcvdPk:sum(packetBytes) 	55120
attr interpolationmode  none
attr source  rcvdPk
attr title  "packets received, sum(packetBytes)"
scalar scenarioPRJP1.node[1].udp 	sentPk:count 	2609
attr interpolationmode  none
attr source  sentPk
attr title  "packets sent, count"
scalar scenarioPRJP1.node[1].udp 	sentPk:sum(packetBytes) 	1356680
attr interpolationmode  none
attr source  sentPk
attr title  "packets sent, sum(packetBytes)"
scalar scenarioPRJP1.node[1].networkLayer.arp 	failedARPResolution:count 	74
attr title  "ARP failed resolutions, count"
scalar scenarioPRJP1.node[1].networkLayer.arp 	completedARPResolution:count 	1981
attr title  "ARP completed resolutions, count"
scalar scenarioPRJP1.node[1].networkLayer.arp 	initiatedARPResolution:count 	162
attr title  "ARP initiated resolutions, count"
scalar scenarioPRJP1.node[1].networkLayer.arp 	sentReply:count 	59
attr title  "ARP replies sent, count"
scalar scenarioPRJP1.node[1].networkLayer.arp 	sentReq:count 	356
attr title  "ARP request sent, count"
scalar scenarioPRJP1.node[1].mobility 	startTime 	0.1
scalar scenarioPRJP1.node[1].mobility 	totalTime 	949.9
scalar scenarioPRJP1.node[1].mobility 	stopTime 	950
scalar scenarioPRJP1.node[1].mobility 	minSpeed 	2.4758713288234e-13
scalar scenarioPRJP1.node[1].mobility 	maxSpeed 	17.690347417975
scalar scenarioPRJP1.node[1].mobility 	totalDistance 	9583.8747893085
scalar scenarioPRJP1.node[1].mobility 	totalCO2Emission 	2659.4485707147
scalar scenarioPRJP1.node[1].wlan.mgmt 	dataQueueLen:max 	100
attr interpolationmode  sample-hold
attr title  "data queue length, max"
scalar scenarioPRJP1.node[1].wlan.mgmt 	dataQueueLen:timeavg 	0.52739581041611
attr interpolationmode  sample-hold
attr title  "data queue length, timeavg"
scalar scenarioPRJP1.node[1].wlan.mgmt 	dropPkByQueue:count 	119
attr interpolationmode  none
attr source  dropPkByQueue
attr title  "packets dropped by queue, count"
scalar scenarioPRJP1.node[1].wlan.mgmt 	dropPkByQueue:sum(packetBytes) 	22840
attr interpolationmode  none
attr source  dropPkByQueue
attr title  "packets dropped by queue, sum(packetBytes)"
scalar scenarioPRJP1.node[1].wlan.mac 	"number of received packets" 	10075
scalar scenarioPRJP1.node[1].wlan.mac 	"number of collisions" 	93606
scalar scenarioPRJP1.node[1].wlan.mac 	"number of internal collisions" 	0
scalar scenarioPRJP1.node[1].wlan.mac 	"number of retry for AC 0" 	29016
scalar scenarioPRJP1.node[1].wlan.mac 	"number of retry for AC 1" 	0
scalar scenarioPRJP1.node[1].wlan.mac 	"number of retry for AC 2" 	0
scalar scenarioPRJP1.node[1].wlan.mac 	"number of retry for AC 3" 	0
scalar scenarioPRJP1.node[1].wlan.mac 	"sent and received bits" 	18123904
scalar scenarioPRJP1.node[1].wlan.mac 	"sent packet within AC 0" 	5097
scalar scenarioPRJP1.node[1].wlan.mac 	"sent packet within AC 1" 	0
scalar scenarioPRJP1.node[1].wlan.mac 	"sent packet within AC 2" 	0
scalar scenarioPRJP1.node[1].wlan.mac 	"sent packet within AC 3" 	0
scalar scenarioPRJP1.node[1].wlan.mac 	"sent in TXOP " 	0
scalar scenarioPRJP1.node[1].wlan.mac 	"sentWithoutRetry AC 0" 	4558
scalar scenarioPRJP1.node[1].wlan.mac 	"sentWithoutRetry AC 1" 	0
scalar scenarioPRJP1.node[1].wlan.mac 	"sentWithoutRetry AC 2" 	0
scalar scenarioPRJP1.node[1].wlan.mac 	"sentWithoutRetry AC 3" 	0
scalar scenarioPRJP1.node[1].wlan.mac 	"numGivenUp AC 0" 	4641
scalar scenarioPRJP1.node[1].wlan.mac 	"numGivenUp AC 1" 	0
scalar scenarioPRJP1.node[1].wlan.mac 	"numGivenUp AC 2" 	0
scalar scenarioPRJP1.node[1].wlan.mac 	"numGivenUp AC 3" 	0
scalar scenarioPRJP1.node[1].wlan.mac 	"numDropped AC 0" 	574
scalar scenarioPRJP1.node[1].wlan.mac 	"numDropped AC 1" 	0
scalar scenarioPRJP1.node[1].wlan.mac 	"numDropped AC 2" 	0
scalar scenarioPRJP1.node[1].wlan.mac 	"numDropped AC 3" 	0
scalar scenarioPRJP1.node[1].wlan.mac 	rcvdPkFromLL:count 	346240
attr interpolationmode  none
attr source  packetReceivedFromLower
attr title  "packets received from lower layer, count"
scalar scenarioPRJP1.node[1].wlan.mac 	rcvdPkFromLL:sum(packetBytes) 	85701508
attr interpolationmode  none
attr source  packetReceivedFromLower
attr title  "packets received from lower layer, sum(packetBytes)"
scalar scenarioPRJP1.node[1].wlan.mac 	sentDownPk:count 	61126
attr interpolationmode  none
attr source  packetSentToLower
attr title  "packets sent to lower layer, count"
scalar scenarioPRJP1.node[1].wlan.mac 	sentDownPk:sum(packetBytes) 	16336330
attr interpolationmode  none
attr source  packetSentToLower
attr title  "packets sent to lower layer, sum(packetBytes)"
scalar scenarioPRJP1.node[1].wlan.mac 	rcvdPkFromHL:count 	22609
attr interpolationmode  none
attr source  packetReceivedFromUpper
attr title  "packets received from higher layer, count"
scalar scenarioPRJP1.node[1].wlan.mac 	rcvdPkFromHL:sum(packetBytes) 	4297308
attr interpolationmode  none
attr source  packetReceivedFromUpper
attr title  "packets received from higher layer, sum(packetBytes)"
scalar scenarioPRJP1.node[1].wlan.mac 	passedUpPk:count 	57374
attr interpolationmode  none
attr source  packetSentToUpper
attr title  "packets passed to higher layer, count"
scalar scenarioPRJP1.node[1].wlan.mac 	passedUpPk:sum(packetBytes) 	5390472
attr interpolationmode  none
attr source  packetSentToUpper
attr title  "packets passed to higher layer, sum(packetBytes)"
statistic scenarioPRJP1.node[1].wlan.radio 	radioChannel:histogram
field count 1
field mean 3
field stddev -nan
field sum 3
field sqrsum 9
field min 3
field max 3
[...]
attr interpolationmode  none
attr source  packetSentToUpper
attr title  "packets passed to higher layer, count"
scalar scenarioPRJP1.node[79].wlan.mac 	passedUpPk:sum(packetBytes) 	4327036
attr interpolationmode  none
attr source  packetSentToUpper
attr title  "packets passed to higher layer, sum(packetBytes)"
statistic scenarioPRJP1.node[79].wlan.radio 	radioChannel:histogram
field count 1
field mean 3
field stddev -nan
field sum 3
field sqrsum 9
field min 3
field max 3
attr interpolationmode  sample-hold
attr source  radioChannelChanged
attr title  "Radio channel, histogram"
bin	-INF	0
bin	2	0
bin	3	1
bin	4	0
scalar scenarioPRJP1.node[79].wlan.radio 	transmissionState:count 	202072
attr interpolationmode  sample-hold
attr source  transmissionStateChanged
attr title  "Radio transmission state, count"
scalar scenarioPRJP1.node[79].wlan.radio 	receptionState:count 	727724
attr interpolationmode  sample-hold
attr source  receptionStateChanged
attr title  "Radio reception state, count"
scalar scenarioPRJP1.node[79].wlan.radio 	radioMode:count 	101038
attr interpolationmode  sample-hold
attr source  radioModeChanged
attr title  "Radio mode, count"
statistic scenarioPRJP1.node[79].wlan.radio 	symbolErrorRate:histogram
field count 0
field mean -nan
field stddev -nan
field sum 0
field sqrsum 0
field min -nan
field max -nan
attr source  symbolErrorRate
attr title  "Symbol error rate, histogram"
bin	-INF	0
bin	-0.5	0
bin	-0.46666666666667	0
bin	-0.43333333333333	0
bin	-0.4	0
bin	-0.36666666666667	0
bin	-0.33333333333333	0
bin	-0.3	0
bin	-0.26666666666667	0
bin	-0.23333333333333	0
bin	-0.2	0
bin	-0.16666666666667	0
bin	-0.13333333333333	0
bin	-0.1	0
bin	-0.066666666666667	0
bin	-0.033333333333333	0
bin	0	0
bin	0.033333333333333	0
bin	0.066666666666667	0
bin	0.1	0
bin	0.13333333333333	0
bin	0.16666666666667	0
bin	0.2	0
bin	0.23333333333333	0
bin	0.26666666666667	0
bin	0.3	0
bin	0.33333333333333	0
bin	0.36666666666667	0
bin	0.4	0
bin	0.43333333333333	0
bin	0.46666666666667	0
bin	0.5	0
statistic scenarioPRJP1.node[79].wlan.radio 	bitErrorRate:histogram
field count 0
field mean -nan
field stddev -nan
field sum 0
field sqrsum 0
field min -nan
field max -nan
attr source  bitErrorRate
attr title  "Bit error rate, histogram"
bin	-INF	0
bin	-0.5	0
bin	-0.46666666666667	0
bin	-0.43333333333333	0
bin	-0.4	0
bin	-0.36666666666667	0
bin	-0.33333333333333	0
bin	-0.3	0
bin	-0.26666666666667	0
bin	-0.23333333333333	0
bin	-0.2	0
bin	-0.16666666666667	0
bin	-0.13333333333333	0
bin	-0.1	0
bin	-0.066666666666667	0
bin	-0.033333333333333	0
bin	0	0
bin	0.033333333333333	0
bin	0.066666666666667	0
bin	0.1	0
bin	0.13333333333333	0
bin	0.16666666666667	0
bin	0.2	0
bin	0.23333333333333	0
bin	0.26666666666667	0
bin	0.3	0
bin	0.33333333333333	0
bin	0.36666666666667	0
bin	0.4	0
bin	0.43333333333333	0
bin	0.46666666666667	0
bin	0.5	0
statistic scenarioPRJP1.node[79].wlan.radio 	packetErrorRate:histogram
field count 293293
field mean 0.24680412774009
field stddev 0.42193872551686
field sum 72385.923037274
field sqrsum 70080.590434599
field min 0
field max 1
attr source  packetErrorRate
attr title  "Packet error rate, histogram"
bin	-INF	0
bin	-0.5	0
bin	-0.43333333333333	0
bin	-0.36666666666667	0
bin	-0.3	0
bin	-0.23333333333333	0
bin	-0.16666666666667	0
bin	-0.1	0
bin	-0.033333333333333	211433
bin	0.033333333333333	3867
bin	0.1	1869
bin	0.16666666666667	1260
bin	0.23333333333333	1020
bin	0.3	819
bin	0.36666666666667	713
bin	0.43333333333333	689
bin	0.5	604
bin	0.56666666666667	577
bin	0.63333333333333	594
bin	0.7	636
bin	0.76666666666667	680
bin	0.83333333333333	790
bin	0.9	1276
bin	0.96666666666667	66466
bin	1.0333333333333	0
bin	1.1	0
bin	1.1666666666667	0
bin	1.2333333333333	0
bin	1.3	0
bin	1.3666666666667	0
bin	1.4333333333333	0
bin	1.5	0
statistic scenarioPRJP1.node[79].wlan.radio 	minSNIR:histogram
field count 293293
field mean 2230.5709920955
field stddev 30911.545069256
field sum 654210857.98466
field sqrsum 2.8170669689977e+14
field min 0.00016744116928066
field max 753239.71923443
attr source  minSNIR
attr title  "Min SNIR, histogram"
bin	-INF	0
bin	-2008.5200283007	0
bin	-1740.5722178892	0
bin	-1472.6244074778	0
bin	-1204.6765970663	0
bin	-936.7287866549	0
bin	-668.78097624345	0
bin	-400.833165832	0
bin	-132.88535542056	221822
bin	135.06245499089	29566
bin	403.01026540234	8943
bin	670.95807581379	5448
bin	938.90588622523	3475
bin	1206.8536966367	2461
bin	1474.8015070481	1721
bin	1742.7493174596	1330
bin	2010.697127871	1202
bin	2278.6449382825	1024
bin	2546.5927486939	1047
bin	2814.5405591054	891
bin	3082.4883695168	819
bin	3350.4361799283	704
bin	3618.3839903397	686
bin	3886.3318007512	551
bin	4154.2796111626	567
bin	4422.2274215741	497
bin	4690.1752319855	393
bin	4958.1230423969	410
bin	5226.0708528084	375
bin	5494.0186632198	315
bin	5761.9664736313	284
bin	6029.9142840427	8762
scalar scenarioPRJP1.node[79].lo0.lo 	droppedPkBitError:count 	0
attr interpolationmode  none
attr source  dropPkBitError
attr title  "packets dropped/bit error, count"
scalar scenarioPRJP1.node[79].lo0.lo 	droppedPkBitError:sum(packetBytes) 	0
attr interpolationmode  none
attr source  dropPkBitError
attr title  "packets dropped/bit error, sum(packetBytes)"
scalar scenarioPRJP1.node[79].lo0.lo 	rcvdPkFromHL:count 	97
attr interpolationmode  none
attr source  packetReceivedFromUpper
attr title  "packets received from higher layer, count"
scalar scenarioPRJP1.node[79].lo0.lo 	rcvdPkFromHL:sum(packetBytes) 	50440
attr interpolationmode  none
attr source  packetReceivedFromUpper
attr title  "packets received from higher layer, sum(packetBytes)"
scalar scenarioPRJP1.node[79].lo0.lo 	passedUpPk:count 	97
attr interpolationmode  none
attr source  packetSentToUpper
attr title  "packets passed to higher layer, count"
scalar scenarioPRJP1.node[79].lo0.lo 	passedUpPk:sum(packetBytes) 	50440
attr interpolationmode  none
attr source  packetSentToUpper
attr title  "packets passed to higher layer, sum(packetBytes)"
scalar scenarioPRJP1.node[99].app 	"Total sent" 	2619
scalar scenarioPRJP1.node[99].app 	"Total received" 	119
scalar scenarioPRJP1.node[99].app 	"Total deleted" 	1
scalar scenarioPRJP1.node[99].app 	dropPk:count 	1
attr interpolationmode  none
attr source  dropPk
attr title  "packets dropped, count"
scalar scenarioPRJP1.node[99].app 	dropPk:sum(packetBytes) 	512
attr interpolationmode  none
attr source  dropPk
attr title  "packets dropped, sum(packetBytes)"
scalar scenarioPRJP1.node[99].app 	outOfOrderPk:count 	1
attr interpolationmode  none
attr source  outOfOrderPk
attr title  "packets received out of order, count"
scalar scenarioPRJP1.node[99].app 	outOfOrderPk:sum(packetBytes) 	512
attr interpolationmode  none
attr source  outOfOrderPk
attr title  "packets received out of order, sum(packetBytes)"
scalar scenarioPRJP1.node[99].app 	rcvdPk:count 	119
attr interpolationmode  none
attr source  rcvdPk
attr title  "packets received, count"
scalar scenarioPRJP1.node[99].app 	rcvdPk:sum(packetBytes) 	60928
attr interpolationmode  none
attr source  rcvdPk
attr title  "packets received, sum(packetBytes)"
statistic scenarioPRJP1.node[99].app 	endToEndDelay:histogram
field count 119
field mean 1.3240222736986
field stddev 3.4173375499053
field sum 157.55865057013
field sqrsum 1586.6382825079
field min 0.00208603692
field max 16.864101130597
attr interpolationmode  none
attr source  messageAge(rcvdPk)
attr title  "delay, histogram"
attr unit  s
bin	-INF	0
bin	-8.4289215099185	0
bin	-7.30478717034	0
bin	-6.1806528307616	0
bin	-5.0565184911831	0
bin	-3.9323841516046	0
bin	-2.8082498120262	0
bin	-1.6841154724477	0
bin	-0.55998113286923	91
bin	0.56415320670924	9
bin	1.6882875462877	4
bin	2.8124218858662	4
bin	3.9365562254446	0
bin	5.0606905650231	2
bin	6.1848249046016	1
bin	7.30895924418	2
bin	8.4330935837585	1
bin	9.557227923337	0
bin	10.681362262915	0
bin	11.805496602494	0
bin	12.929630942072	1
bin	14.053765281651	1
bin	15.177899621229	1
bin	16.302033960808	2
bin	17.426168300386	0
bin	18.550302639965	0
bin	19.674436979543	0
bin	20.798571319122	0
bin	21.9227056587	0
bin	23.046839998279	0
bin	24.170974337857	0
bin	25.295108677436	0
scalar scenarioPRJP1.node[99].app 	sentPk:count 	2619
attr interpolationmode  none
attr source  sentPk
attr title  "packets sent, count"
scalar scenarioPRJP1.node[99].app 	sentPk:sum(packetBytes) 	1340928
attr interpolationmode  none
attr source  sentPk
attr title  "packets sent, sum(packetBytes)"
scalar scenarioPRJP1.node[99].udp 	droppedPkBadChecksum:count 	0
attr interpolationmode  none
attr title  "packets dropped (checksum error), count"
scalar scenarioPRJP1.node[99].udp 	droppedPkWrongPort:count 	0
attr interpolationmode  none
attr title  "packets dropped (wrong port), count"
scalar scenarioPRJP1.node[99].udp 	passedUpPk:count 	121
attr interpolationmode  none
attr title  "packets passed up, count"
scalar scenarioPRJP1.node[99].udp 	rcvdPk:count 	121
attr interpolationmode  none
attr source  rcvdPk
attr title  "packets received, count"
scalar scenarioPRJP1.node[99].udp 	rcvdPk:sum(packetBytes) 	62920
attr interpolationmode  none
attr source  rcvdPk
attr title  "packets received, sum(packetBytes)"
scalar scenarioPRJP1.node[99].udp 	sentPk:count 	2619
attr interpolationmode  none
attr source  sentPk
attr title  "packets sent, count"
scalar scenarioPRJP1.node[99].udp 	sentPk:sum(packetBytes) 	1361880
attr interpolationmode  none
attr source  sentPk
attr title  "packets sent, sum(packetBytes)"
scalar scenarioPRJP1.node[99].networkLayer.arp 	failedARPResolution:count 	71
attr title  "ARP failed resolutions, count"
scalar scenarioPRJP1.node[99].networkLayer.arp 	completedARPResolution:count 	2609
attr title  "ARP completed resolutions, count"
scalar scenarioPRJP1.node[99].networkLayer.arp 	initiatedARPResolution:count 	163
attr title  "ARP initiated resolutions, count"
scalar scenarioPRJP1.node[99].networkLayer.arp 	sentReply:count 	68
attr title  "ARP replies sent, count"
scalar scenarioPRJP1.node[99].networkLayer.arp 	sentReq:count 	339
attr title  "ARP request sent, count"
scalar scenarioPRJP1.node[99].mobility 	startTime 	9.8
scalar scenarioPRJP1.node[99].mobility 	totalTime 	940.2
scalar scenarioPRJP1.node[99].mobility 	stopTime 	950
scalar scenarioPRJP1.node[99].mobility 	minSpeed 	2.4757209543082e-13
scalar scenarioPRJP1.node[99].mobility 	maxSpeed 	15.923778605898
scalar scenarioPRJP1.node[99].mobility 	totalDistance 	8547.6866222083
scalar scenarioPRJP1.node[99].mobility 	totalCO2Emission 	2218.9896995975
scalar scenarioPRJP1.node[99].wlan.mgmt 	dataQueueLen:max 	9
attr interpolationmode  sample-hold
attr title  "data queue length, max"
scalar scenarioPRJP1.node[99].wlan.mgmt 	dataQueueLen:timeavg 	0
attr interpolationmode  sample-hold
attr title  "data queue length, timeavg"
scalar scenarioPRJP1.node[99].wlan.mgmt 	dropPkByQueue:count 	0
attr interpolationmode  none
attr source  dropPkByQueue
attr title  "packets dropped by queue, count"
scalar scenarioPRJP1.node[99].wlan.mgmt 	dropPkByQueue:sum(packetBytes) 	0
attr interpolationmode  none
attr source  dropPkByQueue
attr title  "packets dropped by queue, sum(packetBytes)"
scalar scenarioPRJP1.node[99].wlan.mac 	"number of received packets" 	9682
scalar scenarioPRJP1.node[99].wlan.mac 	"number of collisions" 	92589
scalar scenarioPRJP1.node[99].wlan.mac 	"number of internal collisions" 	0
scalar scenarioPRJP1.node[99].wlan.mac 	"number of retry for AC 0" 	27757
scalar scenarioPRJP1.node[99].wlan.mac 	"number of retry for AC 1" 	0
scalar scenarioPRJP1.node[99].wlan.mac 	"number of retry for AC 2" 	0
scalar scenarioPRJP1.node[99].wlan.mac 	"number of retry for AC 3" 	0
scalar scenarioPRJP1.node[99].wlan.mac 	"sent and received bits" 	16196384
scalar scenarioPRJP1.node[99].wlan.mac 	"sent packet within AC 0" 	4356
scalar scenarioPRJP1.node[99].wlan.mac 	"sent packet within AC 1" 	0
scalar scenarioPRJP1.node[99].wlan.mac 	"sent packet within AC 2" 	0
scalar scenarioPRJP1.node[99].wlan.mac 	"sent packet within AC 3" 	0
scalar scenarioPRJP1.node[99].wlan.mac 	"sent in TXOP " 	0
scalar scenarioPRJP1.node[99].wlan.mac 	"sentWithoutRetry AC 0" 	3735
scalar scenarioPRJP1.node[99].wlan.mac 	"sentWithoutRetry AC 1" 	0
scalar scenarioPRJP1.node[99].wlan.mac 	"sentWithoutRetry AC 2" 	0
scalar scenarioPRJP1.node[99].wlan.mac 	"sentWithoutRetry AC 3" 	0
scalar scenarioPRJP1.node[99].wlan.mac 	"numGivenUp AC 0" 	4375
scalar scenarioPRJP1.node[99].wlan.mac 	"numGivenUp AC 1" 	0
scalar scenarioPRJP1.node[99].wlan.mac 	"numGivenUp AC 2" 	0
scalar scenarioPRJP1.node[99].wlan.mac 	"numGivenUp AC 3" 	0
scalar scenarioPRJP1.node[99].wlan.mac 	"numDropped AC 0" 	5
scalar scenarioPRJP1.node[99].wlan.mac 	"numDropped AC 1" 	0
scalar scenarioPRJP1.node[99].wlan.mac 	"numDropped AC 2" 	0
scalar scenarioPRJP1.node[99].wlan.mac 	"numDropped AC 3" 	0
scalar scenarioPRJP1.node[99].wlan.mac 	rcvdPkFromLL:count 	334943
attr interpolationmode  none
attr source  packetReceivedFromLower
attr title  "packets received from lower layer, count"
scalar scenarioPRJP1.node[99].wlan.mac 	rcvdPkFromLL:sum(packetBytes) 	93202790
attr interpolationmode  none
attr source  packetReceivedFromLower
attr title  "packets received from lower layer, sum(packetBytes)"
scalar scenarioPRJP1.node[99].wlan.mac 	sentDownPk:count 	55107
attr interpolationmode  none
attr source  packetSentToLower
attr title  "packets sent to lower layer, count"
scalar scenarioPRJP1.node[99].wlan.mac 	sentDownPk:sum(packetBytes) 	14760392
attr interpolationmode  none
attr source  packetSentToLower
attr title  "packets sent to lower layer, sum(packetBytes)"
scalar scenarioPRJP1.node[99].wlan.mac 	rcvdPkFromHL:count 	17673
attr interpolationmode  none
attr source  packetReceivedFromUpper
attr title  "packets received from higher layer, count"
scalar scenarioPRJP1.node[99].wlan.mac 	rcvdPkFromHL:sum(packetBytes) 	3724692
attr interpolationmode  none
attr source  packetReceivedFromUpper
attr title  "packets received from higher layer, sum(packetBytes)"
scalar scenarioPRJP1.node[99].wlan.mac 	passedUpPk:count 	32904
attr interpolationmode  none
attr source  packetSentToUpper
attr title  "packets passed to higher layer, count"
scalar scenarioPRJP1.node[99].wlan.mac 	passedUpPk:sum(packetBytes) 	3426164
attr interpolationmode  none
attr source  packetSentToUpper
attr title  "packets passed to higher layer, sum(packetBytes)"
statistic scenarioPRJP1.node[99].wlan.radio 	radioChannel:histogram
field count 1
field mean 3
field stddev -nan
field sum 3
field sqrsum 9
field min 3
field max 3
attr interpolationmode  sample-hold
attr source  radioChannelChanged
attr title  "Radio channel, histogram"
bin	-INF	0
bin	2	0
bin	3	1
bin	4	0
scalar scenarioPRJP1.node[99].wlan.radio 	transmissionState:count 	220428
attr interpolationmode  sample-hold
attr source  transmissionStateChanged
attr title  "Radio transmission state, count"
scalar scenarioPRJP1.node[99].wlan.radio 	receptionState:count 	824500
attr interpolationmode  sample-hold
attr source  receptionStateChanged
attr title  "Radio reception state, count"
scalar scenarioPRJP1.node[99].wlan.radio 	radioMode:count 	110216
attr interpolationmode  sample-hold
attr source  radioModeChanged
attr title  "Radio mode, count"
statistic scenarioPRJP1.node[99].wlan.radio 	symbolErrorRate:histogram
field count 0
field mean -nan
field stddev -nan
field sum 0
field sqrsum 0
field min -nan
field max -nan
attr source  symbolErrorRate
attr title  "Symbol error rate, histogram"
bin	-INF	0
bin	-0.5	0
bin	-0.46666666666667	0
bin	-0.43333333333333	0
bin	-0.4	0
bin	-0.36666666666667	0
bin	-0.33333333333333	0
bin	-0.3	0
bin	-0.26666666666667	0
bin	-0.23333333333333	0
bin	-0.2	0
bin	-0.16666666666667	0
bin	-0.13333333333333	0
bin	-0.1	0
bin	-0.066666666666667	0
bin	-0.033333333333333	0
bin	0	0
bin	0.033333333333333	0
bin	0.066666666666667	0
bin	0.1	0
bin	0.13333333333333	0
bin	0.16666666666667	0
bin	0.2	0
bin	0.23333333333333	0
bin	0.26666666666667	0
bin	0.3	0
bin	0.33333333333333	0
bin	0.36666666666667	0
bin	0.4	0
bin	0.43333333333333	0
bin	0.46666666666667	0
bin	0.5	0
statistic scenarioPRJP1.node[99].wlan.radio 	bitErrorRate:histogram
field count 0
field mean -nan
field stddev -nan
field sum 0
field sqrsum 0
field min -nan
field max -nan
attr source  bitErrorRate
attr title  "Bit error rate, histogram"
bin	-INF	0
bin	-0.5	0
bin	-0.46666666666667	0
bin	-0.43333333333333	0
bin	-0.4	0
bin	-0.36666666666667	0
bin	-0.33333333333333	0
bin	-0.3	0
bin	-0.26666666666667	0
bin	-0.23333333333333	0
bin	-0.2	0
bin	-0.16666666666667	0
bin	-0.13333333333333	0
bin	-0.1	0
bin	-0.066666666666667	0
bin	-0.033333333333333	0
bin	0	0
bin	0.033333333333333	0
bin	0.066666666666667	0
bin	0.1	0
bin	0.13333333333333	0
bin	0.16666666666667	0
bin	0.2	0
bin	0.23333333333333	0
bin	0.26666666666667	0
bin	0.3	0
bin	0.33333333333333	0
bin	0.36666666666667	0
bin	0.4	0
bin	0.43333333333333	0
bin	0.46666666666667	0
bin	0.5	0
statistic scenarioPRJP1.node[99].wlan.radio 	packetErrorRate:histogram
field count 334943
field mean 0.26081867079667
field stddev 0.4297808789202
field sum 87359.388052649
field sqrsum 84652.633502092
field min 0
field max 1
attr source  packetErrorRate
attr title  "Packet error rate, histogram"
bin	-INF	0
bin	-0.5	0
bin	-0.43333333333333	0
bin	-0.36666666666667	0
bin	-0.3	0
bin	-0.23333333333333	0
bin	-0.16666666666667	0
bin	-0.1	0
bin	-0.033333333333333	236528
bin	0.033333333333333	4416
bin	0.1	2191
bin	0.16666666666667	1509
bin	0.23333333333333	1184
bin	0.3	987
bin	0.36666666666667	880
bin	0.43333333333333	792
bin	0.5	753
bin	0.56666666666667	705
bin	0.63333333333333	678
bin	0.7	706
bin	0.76666666666667	740
bin	0.83333333333333	982
bin	0.9	1430
bin	0.96666666666667	80462
bin	1.0333333333333	0
bin	1.1	0
bin	1.1666666666667	0
bin	1.2333333333333	0
bin	1.3	0
bin	1.3666666666667	0
bin	1.4333333333333	0
bin	1.5	0
statistic scenarioPRJP1.node[99].wlan.radio 	minSNIR:histogram
field count 334943
field mean 2187.9160435279
field stddev 30169.975567643
field sum 732827163.36735
field sqrsum 3.0647675874414e+14
field min 0.00016963255660424
field max 7649903.6255063
attr source  minSNIR
attr title  "Min SNIR, histogram"
bin	-INF	0
bin	-431.9152178928	0
bin	-374.24280684582	0
bin	-316.57039579884	0
bin	-258.89798475186	0
bin	-201.22557370488	0
bin	-143.55316265789	0
bin	-85.880751610911	0
bin	-28.208340563929	210890
bin	29.464070483053	33132
bin	87.136481530035	14304
bin	144.80889257702	12208
bin	202.481303624	7646
bin	260.15371467098	5205
bin	317.82612571796	4208
bin	375.49853676495	3410
bin	433.17094781193	2656
bin	490.84335885891	2298
bin	548.51576990589	2006
bin	606.18818095288	1844
bin	663.86059199986	1518
bin	721.53300304684	1357
bin	779.20541409382	1195
bin	836.8778251408	962
bin	894.55023618779	913
bin	952.22264723477	850
bin	1009.8950582818	794
bin	1067.5674693287	685
bin	1125.2398803757	660
bin	1182.9122914227	582
bin	1240.5847024697	625
bin	1298.2571135167	24995
scalar scenarioPRJP1.node[99].lo0.lo 	droppedPkBitError:count 	0
attr interpolationmode  none
attr source  dropPkBitError
attr title  "packets dropped/bit error, count"
scalar scenarioPRJP1.node[99].lo0.lo 	droppedPkBitError:sum(packetBytes) 	0
attr interpolationmode  none
attr source  dropPkBitError
attr title  "packets dropped/bit error, sum(packetBytes)"
scalar scenarioPRJP1.node[99].lo0.lo 	rcvdPkFromHL:count 	121
attr interpolationmode  none
attr source  packetReceivedFromUpper
attr title  "packets received from higher layer, count"
scalar scenarioPRJP1.node[99].lo0.lo 	rcvdPkFromHL:sum(packetBytes) 	62920
attr interpolationmode  none
attr source  packetReceivedFromUpper
attr title  "packets received from higher layer, sum(packetBytes)"
scalar scenarioPRJP1.node[99].lo0.lo 	passedUpPk:count 	121
attr interpolationmode  none
attr source  packetSentToUpper
attr title  "packets passed to higher layer, count"
scalar scenarioPRJP1.node[99].lo0.lo 	passedUpPk:sum(packetBytes) 	62920
attr interpolationmode  none
attr source  packetSentToUpper
attr title  "packets passed to higher layer, sum(packetBytes)"
