version 2
run AODVRouting-TRG-75n-5-20150730-09:36:17-15207
attr configname AODVRouting-TRG-75n
attr datetime 20150730-09:36:17
attr experiment AODVRouting-TRG-75n
attr inifile omnetpp.ini
attr iterationvars ""
attr iterationvars2 $repetition=5
attr measurement ""
attr network Prj_Part1_propag.scenarioPRJP1
attr processid 15207
attr repetition 5
attr replication #5
attr resultdir results
attr runnumber 5
attr seedset 5

scalar scenarioPRJP1.radioMedium.propagation 	"Arrival computation count" 	154436520
scalar scenarioPRJP1.radioMedium 	"transmission count" 	2086980
scalar scenarioPRJP1.radioMedium 	"radio frame send count" 	154436520
scalar scenarioPRJP1.radioMedium 	"reception computation count" 	153795915
scalar scenarioPRJP1.radioMedium 	"interference computation count" 	437372026
scalar scenarioPRJP1.radioMedium 	"reception decision computation count" 	11196817
scalar scenarioPRJP1.radioMedium 	"listening decision computation count" 	273908258
scalar scenarioPRJP1.radioMedium 	"reception cache hit" 	82.934495539111
attr unit  %
scalar scenarioPRJP1.radioMedium 	"interference cache hit" 	50
attr unit  %
scalar scenarioPRJP1.radioMedium 	"noise cache hit" 	0
attr unit  %
scalar scenarioPRJP1.radioMedium 	"snir cache hit" 	0
attr unit  %
scalar scenarioPRJP1.radioMedium 	"reception decision cache hit" 	0
attr unit  %
scalar scenarioPRJP1.node[0].app 	"Total sent" 	2610
scalar scenarioPRJP1.node[0].app 	"Total received" 	189
scalar scenarioPRJP1.node[0].app 	"Total deleted" 	156
scalar scenarioPRJP1.node[0].app 	dropPk:count 	156
attr interpolationmode  none
attr source  dropPk
attr title  "packets dropped, count"
scalar scenarioPRJP1.node[0].app 	dropPk:sum(packetBytes) 	79872
attr interpolationmode  none
attr source  dropPk
attr title  "packets dropped, sum(packetBytes)"
scalar scenarioPRJP1.node[0].app 	outOfOrderPk:count 	42
attr interpolationmode  none
attr source  outOfOrderPk
attr title  "packets received out of order, count"
scalar scenarioPRJP1.node[0].app 	outOfOrderPk:sum(packetBytes) 	21504
attr interpolationmode  none
attr source  outOfOrderPk
attr title  "packets received out of order, sum(packetBytes)"
scalar scenarioPRJP1.node[0].app 	rcvdPk:count 	189
attr interpolationmode  none
attr source  rcvdPk
attr title  "packets received, count"
scalar scenarioPRJP1.node[0].app 	rcvdPk:sum(packetBytes) 	96768
attr interpolationmode  none
attr source  rcvdPk
attr title  "packets received, sum(packetBytes)"
statistic scenarioPRJP1.node[0].app 	endToEndDelay:histogram
field count 189
field mean 1.5525161188691
field stddev 3.7646060184511
field sum 293.42554646627
field sqrsum 3119.9324837186
field min 0.000945062177
field max 19.060466120291
attr interpolationmode  none
attr source  messageAge(rcvdPk)
attr title  "delay, histogram"
attr unit  s
bin	-INF	0
bin	-9.528795963742	0
bin	-8.2581620933405	0
bin	-6.9875282229391	0
bin	-5.7168943525376	0
bin	-4.4462604821361	0
bin	-3.1756266117347	0
bin	-1.9049927413332	0
bin	-0.63435887093173	147
bin	0.63627499946973	10
bin	1.9069088698712	3
bin	3.1775427402727	4
bin	4.4481766106741	3
bin	5.7188104810756	5
bin	6.9894443514771	2
bin	8.2600782218785	3
bin	9.53071209228	3
bin	10.801345962681	2
bin	12.071979833083	1
bin	13.342613703484	2
bin	14.613247573886	0
bin	15.883881444287	2
bin	17.154515314689	1
bin	18.42514918509	1
bin	19.695783055492	0
bin	20.966416925893	0
bin	22.237050796295	0
bin	23.507684666696	0
bin	24.778318537098	0
bin	26.048952407499	0
bin	27.319586277901	0
bin	28.590220148302	0
scalar scenarioPRJP1.node[0].app 	sentPk:count 	2610
attr interpolationmode  none
attr source  sentPk
attr title  "packets sent, count"
scalar scenarioPRJP1.node[0].app 	sentPk:sum(packetBytes) 	1336320
attr interpolationmode  none
attr source  sentPk
attr title  "packets sent, sum(packetBytes)"
scalar scenarioPRJP1.node[0].udp 	droppedPkBadChecksum:count 	0
attr interpolationmode  none
attr title  "packets dropped (checksum error), count"
scalar scenarioPRJP1.node[0].udp 	droppedPkWrongPort:count 	0
attr interpolationmode  none
attr title  "packets dropped (wrong port), count"
scalar scenarioPRJP1.node[0].udp 	passedUpPk:count 	387
attr interpolationmode  none
attr title  "packets passed up, count"
scalar scenarioPRJP1.node[0].udp 	rcvdPk:count 	387
attr interpolationmode  none
attr source  rcvdPk
attr title  "packets received, count"
scalar scenarioPRJP1.node[0].udp 	rcvdPk:sum(packetBytes) 	201240
attr interpolationmode  none
attr source  rcvdPk
attr title  "packets received, sum(packetBytes)"
scalar scenarioPRJP1.node[0].udp 	sentPk:count 	2610
attr interpolationmode  none
attr source  sentPk
attr title  "packets sent, count"
scalar scenarioPRJP1.node[0].udp 	sentPk:sum(packetBytes) 	1357200
attr interpolationmode  none
attr source  sentPk
attr title  "packets sent, sum(packetBytes)"
scalar scenarioPRJP1.node[0].networkLayer.arp 	failedARPResolution:count 	9
attr title  "ARP failed resolutions, count"
scalar scenarioPRJP1.node[0].networkLayer.arp 	completedARPResolution:count 	409
attr title  "ARP completed resolutions, count"
scalar scenarioPRJP1.node[0].networkLayer.arp 	initiatedARPResolution:count 	77
attr title  "ARP initiated resolutions, count"
scalar scenarioPRJP1.node[0].networkLayer.arp 	sentReply:count 	47
attr title  "ARP replies sent, count"
scalar scenarioPRJP1.node[0].networkLayer.arp 	sentReq:count 	109
attr title  "ARP request sent, count"
scalar scenarioPRJP1.node[0].mobility 	startTime 	0.1
scalar scenarioPRJP1.node[0].mobility 	totalTime 	949.8
scalar scenarioPRJP1.node[0].mobility 	stopTime 	950
scalar scenarioPRJP1.node[0].mobility 	minSpeed 	2.4758042827178e-13
scalar scenarioPRJP1.node[0].mobility 	maxSpeed 	19.26345446268
scalar scenarioPRJP1.node[0].mobility 	totalDistance 	10804.227635141
scalar scenarioPRJP1.node[0].mobility 	totalCO2Emission 	2835.9605340284
scalar scenarioPRJP1.node[0].wlan[0].mgmt 	dataQueueLen:max 	28
attr interpolationmode  sample-hold
attr title  "data queue length, max"
scalar scenarioPRJP1.node[0].wlan[0].mgmt 	dataQueueLen:timeavg 	0
attr interpolationmode  sample-hold
attr title  "data queue length, timeavg"
scalar scenarioPRJP1.node[0].wlan[0].mgmt 	dropPkByQueue:count 	0
attr interpolationmode  none
attr source  dropPkByQueue
attr title  "packets dropped by queue, count"
scalar scenarioPRJP1.node[0].wlan[0].mgmt 	dropPkByQueue:sum(packetBytes) 	0
attr interpolationmode  none
attr source  dropPkByQueue
attr title  "packets dropped by queue, sum(packetBytes)"
scalar scenarioPRJP1.node[0].wlan[0].mac 	"number of received packets" 	5584
scalar scenarioPRJP1.node[0].wlan[0].mac 	"number of collisions" 	15303
scalar scenarioPRJP1.node[0].wlan[0].mac 	"number of internal collisions" 	0
scalar scenarioPRJP1.node[0].wlan[0].mac 	"number of retry for AC 0" 	6992
scalar scenarioPRJP1.node[0].wlan[0].mac 	"number of retry for AC 1" 	0
scalar scenarioPRJP1.node[0].wlan[0].mac 	"number of retry for AC 2" 	0
scalar scenarioPRJP1.node[0].wlan[0].mac 	"number of retry for AC 3" 	0
scalar scenarioPRJP1.node[0].wlan[0].mac 	"sent and received bits" 	13106208
scalar scenarioPRJP1.node[0].wlan[0].mac 	"sent packet within AC 0" 	1574
scalar scenarioPRJP1.node[0].wlan[0].mac 	"sent packet within AC 1" 	1
scalar scenarioPRJP1.node[0].wlan[0].mac 	"sent packet within AC 2" 	0
scalar scenarioPRJP1.node[0].wlan[0].mac 	"sent packet within AC 3" 	0
scalar scenarioPRJP1.node[0].wlan[0].mac 	"sent in TXOP " 	0
scalar scenarioPRJP1.node[0].wlan[0].mac 	"sentWithoutRetry AC 0" 	1513
scalar scenarioPRJP1.node[0].wlan[0].mac 	"sentWithoutRetry AC 1" 	1
scalar scenarioPRJP1.node[0].wlan[0].mac 	"sentWithoutRetry AC 2" 	0
scalar scenarioPRJP1.node[0].wlan[0].mac 	"sentWithoutRetry AC 3" 	0
scalar scenarioPRJP1.node[0].wlan[0].mac 	"numGivenUp AC 0" 	1150
scalar scenarioPRJP1.node[0].wlan[0].mac 	"numGivenUp AC 1" 	0
scalar scenarioPRJP1.node[0].wlan[0].mac 	"numGivenUp AC 2" 	0
scalar scenarioPRJP1.node[0].wlan[0].mac 	"numGivenUp AC 3" 	0
scalar scenarioPRJP1.node[0].wlan[0].mac 	"numDropped AC 0" 	0
scalar scenarioPRJP1.node[0].wlan[0].mac 	"numDropped AC 1" 	0
scalar scenarioPRJP1.node[0].wlan[0].mac 	"numDropped AC 2" 	0
scalar scenarioPRJP1.node[0].wlan[0].mac 	"numDropped AC 3" 	0
scalar scenarioPRJP1.node[0].wlan[0].mac 	rcvdPkFromLL:count 	129277
attr interpolationmode  none
attr source  packetReceivedFromLower
attr title  "packets received from lower layer, count"
scalar scenarioPRJP1.node[0].wlan[0].mac 	rcvdPkFromLL:sum(packetBytes) 	23645304
attr interpolationmode  none
attr source  packetReceivedFromLower
attr title  "packets received from lower layer, sum(packetBytes)"
scalar scenarioPRJP1.node[0].wlan[0].mac 	sentDownPk:count 	29889
attr interpolationmode  none
attr source  packetSentToLower
attr title  "packets sent to lower layer, count"
scalar scenarioPRJP1.node[0].wlan[0].mac 	sentDownPk:sum(packetBytes) 	5439768
attr interpolationmode  none
attr source  packetSentToLower
attr title  "packets sent to lower layer, sum(packetBytes)"
scalar scenarioPRJP1.node[0].wlan[0].mac 	rcvdPkFromHL:count 	17313
attr interpolationmode  none
attr source  packetReceivedFromUpper
attr title  "packets received from higher layer, count"
scalar scenarioPRJP1.node[0].wlan[0].mac 	rcvdPkFromHL:sum(packetBytes) 	2164084
attr interpolationmode  none
attr source  packetReceivedFromUpper
attr title  "packets received from higher layer, sum(packetBytes)"
scalar scenarioPRJP1.node[0].wlan[0].mac 	passedUpPk:count 	59499
attr interpolationmode  none
attr source  packetSentToUpper
attr title  "packets passed to higher layer, count"
scalar scenarioPRJP1.node[0].wlan[0].mac 	passedUpPk:sum(packetBytes) 	5800548
attr interpolationmode  none
attr source  packetSentToUpper
attr title  "packets passed to higher layer, sum(packetBytes)"
statistic scenarioPRJP1.node[0].wlan[0].radio 	radioChannel:histogram
field count 1
field mean 3
field stddev -nan
field sum 3
field sqrsum 9
field min 3
field max 3
attr interpolationmode  sample-hold
attr source  radioChannelChanged
attr title  "Radio channel, histogram"
bin	-INF	0
bin	2	0
bin	3	1
bin	4	0
scalar scenarioPRJP1.node[0].wlan[0].radio 	transmissionState:count 	119556
attr interpolationmode  sample-hold
attr source  transmissionStateChanged
attr title  "Radio transmission state, count"
scalar scenarioPRJP1.node[0].wlan[0].radio 	receptionState:count 	319903
attr interpolationmode  sample-hold
attr source  receptionStateChanged
attr title  "Radio reception state, count"
scalar scenarioPRJP1.node[0].wlan[0].radio 	radioMode:count 	59780
attr interpolationmode  sample-hold
attr source  radioModeChanged
attr title  "Radio mode, count"
statistic scenarioPRJP1.node[0].wlan[0].radio 	symbolErrorRate:histogram
field count 0
field mean -nan
field stddev -nan
field sum 0
field sqrsum 0
field min -nan
field max -nan
attr source  symbolErrorRate
attr title  "Symbol error rate, histogram"
bin	-INF	0
bin	-0.5	0
bin	-0.46666666666667	0
bin	-0.43333333333333	0
bin	-0.4	0
bin	-0.36666666666667	0
bin	-0.33333333333333	0
bin	-0.3	0
bin	-0.26666666666667	0
bin	-0.23333333333333	0
bin	-0.2	0
bin	-0.16666666666667	0
bin	-0.13333333333333	0
bin	-0.1	0
bin	-0.066666666666667	0
bin	-0.033333333333333	0
bin	0	0
bin	0.033333333333333	0
bin	0.066666666666667	0
bin	0.1	0
bin	0.13333333333333	0
bin	0.16666666666667	0
bin	0.2	0
bin	0.23333333333333	0
bin	0.26666666666667	0
bin	0.3	0
bin	0.33333333333333	0
bin	0.36666666666667	0
bin	0.4	0
bin	0.43333333333333	0
bin	0.46666666666667	0
bin	0.5	0
statistic scenarioPRJP1.node[0].wlan[0].radio 	bitErrorRate:histogram
field count 0
field mean -nan
field stddev -nan
field sum 0
field sqrsum 0
field min -nan
field max -nan
attr source  bitErrorRate
attr title  "Bit error rate, histogram"
bin	-INF	0
bin	-0.5	0
bin	-0.46666666666667	0
bin	-0.43333333333333	0
bin	-0.4	0
bin	-0.36666666666667	0
bin	-0.33333333333333	0
bin	-0.3	0
bin	-0.26666666666667	0
bin	-0.23333333333333	0
bin	-0.2	0
bin	-0.16666666666667	0
bin	-0.13333333333333	0
bin	-0.1	0
bin	-0.066666666666667	0
bin	-0.033333333333333	0
bin	0	0
bin	0.033333333333333	0
bin	0.066666666666667	0
bin	0.1	0
bin	0.13333333333333	0
bin	0.16666666666667	0
bin	0.2	0
bin	0.23333333333333	0
bin	0.26666666666667	0
bin	0.3	0
bin	0.33333333333333	0
bin	0.36666666666667	0
bin	0.4	0
bin	0.43333333333333	0
bin	0.46666666666667	0
bin	0.5	0
statistic scenarioPRJP1.node[0].wlan[0].radio 	packetErrorRate:histogram
field count 129277
field mean 0.10297504959527
field stddev 0.29567111126517
field sum 13312.305486528
field sqrsum 12672.325004514
field min 0
field max 1
attr source  packetErrorRate
attr title  "Packet error rate, histogram"
bin	-INF	0
bin	-0.5	0
bin	-0.43333333333333	0
bin	-0.36666666666667	0
bin	-0.3	0
bin	-0.23333333333333	0
bin	-0.16666666666667	0
bin	-0.1	0
bin	-0.033333333333333	113232
bin	0.033333333333333	1122
bin	0.1	591
bin	0.16666666666667	406
bin	0.23333333333333	262
bin	0.3	234
bin	0.36666666666667	185
bin	0.43333333333333	188
bin	0.5	150
bin	0.56666666666667	130
bin	0.63333333333333	160
bin	0.7	175
bin	0.76666666666667	171
bin	0.83333333333333	216
bin	0.9	356
bin	0.96666666666667	11699
bin	1.0333333333333	0
bin	1.1	0
bin	1.1666666666667	0
bin	1.2333333333333	0
bin	1.3	0
bin	1.3666666666667	0
bin	1.4333333333333	0
bin	1.5	0
statistic scenarioPRJP1.node[0].wlan[0].radio 	minSNIR:histogram
field count 129277
field mean 8185.0767712174
field stddev 58634.574280235
field sum 1058142169.7527
field sqrsum 4.5311358239751e+14
field min 0.00017109251535808
field max 4966634.9586609
attr source  minSNIR
attr title  "Min SNIR, histogram"
bin	-INF	0
bin	-289.06300518017	0
bin	-250.2985398287	0
bin	-211.53407447723	0
bin	-172.76960912575	0
bin	-134.00514377428	0
bin	-95.240678422812	0
bin	-56.476213071341	0
bin	-17.711747719869	50264
bin	21.052717631602	15796
bin	59.817182983073	6536
bin	98.581648334545	4903
bin	137.34611368602	6563
bin	176.11057903749	4523
bin	214.87504438896	3209
bin	253.63950974043	2517
bin	292.4039750919	2323
bin	331.16844044337	1728
bin	369.93290579484	1224
bin	408.69737114632	1234
bin	447.46183649779	1100
bin	486.22630184926	1099
bin	524.99076720073	867
bin	563.7552325522	771
bin	602.51969790367	604
bin	641.28416325514	517
bin	680.04862860661	458
bin	718.81309395809	413
bin	757.57755930956	368
bin	796.34202466103	367
bin	835.1064900125	333
bin	873.87095536397	21560
scalar scenarioPRJP1.node[0].lo0.lo 	droppedPkBitError:count 	0
attr interpolationmode  none
attr source  dropPkBitError
attr title  "packets dropped/bit error, count"
scalar scenarioPRJP1.node[0].lo0.lo 	droppedPkBitError:sum(packetBytes) 	0
attr interpolationmode  none
attr source  dropPkBitError
attr title  "packets dropped/bit error, sum(packetBytes)"
scalar scenarioPRJP1.node[0].lo0.lo 	rcvdPkFromHL:count 	0
attr interpolationmode  none
attr source  packetReceivedFromUpper
attr title  "packets received from higher layer, count"
scalar scenarioPRJP1.node[0].lo0.lo 	rcvdPkFromHL:sum(packetBytes) 	0
attr interpolationmode  none
attr source  packetReceivedFromUpper
attr title  "packets received from higher layer, sum(packetBytes)"
scalar scenarioPRJP1.node[0].lo0.lo 	passedUpPk:count 	0
attr interpolationmode  none
attr source  packetSentToUpper
attr title  "packets passed to higher layer, count"
scalar scenarioPRJP1.node[0].lo0.lo 	passedUpPk:sum(packetBytes) 	0
attr interpolationmode  none
attr source  packetSentToUpper
attr title  "packets passed to higher layer, sum(packetBytes)"
scalar scenarioPRJP1.node[20].app 	"Total sent" 	2615
scalar scenarioPRJP1.node[20].app 	"Total received" 	187
scalar scenarioPRJP1.node[20].app 	"Total deleted" 	171
scalar scenarioPRJP1.node[20].app 	dropPk:count 	171
attr interpolationmode  none
attr source  dropPk
attr title  "packets dropped, count"
scalar scenarioPRJP1.node[20].app 	dropPk:sum(packetBytes) 	87552
attr interpolationmode  none
attr source  dropPk
attr title  "packets dropped, sum(packetBytes)"
scalar scenarioPRJP1.node[20].app 	outOfOrderPk:count 	35
attr interpolationmode  none
attr source  outOfOrderPk
attr title  "packets received out of order, count"
scalar scenarioPRJP1.node[20].app 	outOfOrderPk:sum(packetBytes) 	17920
attr interpolationmode  none
attr source  outOfOrderPk
attr title  "packets received out of order, sum(packetBytes)"
scalar scenarioPRJP1.node[20].app 	rcvdPk:count 	187
attr interpolationmode  none
attr source  rcvdPk
attr title  "packets received, count"
scalar scenarioPRJP1.node[20].app 	rcvdPk:sum(packetBytes) 	95744
attr interpolationmode  none
attr source  rcvdPk
attr title  "packets received, sum(packetBytes)"
statistic scenarioPRJP1.node[20].app 	endToEndDelay:histogram
field count 187
field mean 2.0991679718032
field stddev 4.8095185192777
field sum 392.5444107272
field sqrsum 5126.4697745421
field min 0.000945022685
field max 19.815142433668
attr interpolationmode  none
attr source  messageAge(rcvdPk)
attr title  "delay, histogram"
attr unit  s
bin	-INF	0
bin	-9.49873930749	0
bin	-8.2321147301333	0
bin	-6.9654901527767	0
bin	-5.69886557542	0
bin	-4.4322409980633	0
bin	-3.1656164207067	0
bin	-1.89899184335	0
bin	-0.63236726599333	147
bin	0.63425731136333	4
bin	1.90088188872	4
bin	3.1675064660767	0
bin	4.4341310434333	4
bin	5.70075562079	3
bin	6.9673801981467	3
bin	8.2340047755033	3
bin	9.50062935286	3
bin	10.767253930217	1
bin	12.033878507573	3
bin	13.30050308493	2
bin	14.567127662287	2
bin	15.833752239643	2
bin	17.100376817	1
bin	18.367001394357	4
bin	19.633625971713	1
bin	20.90025054907	0
bin	22.166875126427	0
bin	23.433499703783	0
bin	24.70012428114	0
bin	25.966748858497	0
bin	27.233373435853	0
bin	28.49999801321	0
scalar scenarioPRJP1.node[20].app 	sentPk:count 	2615
attr interpolationmode  none
attr source  sentPk
attr title  "packets sent, count"
scalar scenarioPRJP1.node[20].app 	sentPk:sum(packetBytes) 	1338880
attr interpolationmode  none
attr source  sentPk
attr title  "packets sent, sum(packetBytes)"
scalar scenarioPRJP1.node[20].udp 	droppedPkBadChecksum:count 	0
attr interpolationmode  none
attr title  "packets dropped (checksum error), count"
scalar scenarioPRJP1.node[20].udp 	droppedPkWrongPort:count 	0
attr interpolationmode  none
attr title  "packets dropped (wrong port), count"
scalar scenarioPRJP1.node[20].udp 	passedUpPk:count 	393
attr interpolationmode  none
attr title  "packets passed up, count"
scalar scenarioPRJP1.node[20].udp 	rcvdPk:count 	393
attr interpolationmode  none
attr source  rcvdPk
attr title  "packets received, count"
scalar scenarioPRJP1.node[20].udp 	rcvdPk:sum(packetBytes) 	204360
attr interpolationmode  none
attr source  rcvdPk
attr title  "packets received, sum(packetBytes)"
scalar scenarioPRJP1.node[20].udp 	sentPk:count 	2615
attr interpolationmode  none
attr source  sentPk
attr title  "packets sent, count"
scalar scenarioPRJP1.node[20].udp 	sentPk:sum(packetBytes) 	1359800
attr interpolationmode  none
attr source  sentPk
attr title  "packets sent, sum(packetBytes)"
scalar scenarioPRJP1.node[20].networkLayer.arp 	failedARPResolution:count 	7
attr title  "ARP failed resolutions, count"
scalar scenarioPRJP1.node[20].networkLayer.arp 	completedARPResolution:count 	512
attr title  "ARP completed resolutions, count"
scalar scenarioPRJP1.node[20].networkLayer.arp 	initiatedARPResolution:count 	64
attr title  "ARP initiated resolutions, count"
scalar scenarioPRJP1.node[20].networkLayer.arp 	sentReply:count 	56
attr title  "ARP replies sent, count"
scalar scenarioPRJP1.node[20].networkLayer.arp 	sentReq:count 	93
attr title  "ARP request sent, count"
scalar scenarioPRJP1.node[20].mobility 	startTime 	2.5
scalar scenarioPRJP1.node[20].mobility 	totalTime 	947.4
scalar scenarioPRJP1.node[20].mobility 	stopTime 	950
scalar scenarioPRJP1.node[20].mobility 	minSpeed 	2.4754980357354e-13
scalar scenarioPRJP1.node[20].mobility 	maxSpeed 	17.782122350437
scalar scenarioPRJP1.node[20].mobility 	totalDistance 	8420.2563343436
scalar scenarioPRJP1.node[20].mobility 	totalCO2Emission 	2418.7808900719
scalar scenarioPRJP1.node[20].wlan[0].mgmt 	dataQueueLen:max 	27
attr interpolationmode  sample-hold
attr title  "data queue length, max"
scalar scenarioPRJP1.node[20].wlan[0].mgmt 	dataQueueLen:timeavg 	0
attr interpolationmode  sample-hold
attr title  "data queue length, timeavg"
scalar scenarioPRJP1.node[20].wlan[0].mgmt 	dropPkByQueue:count 	0
attr interpolationmode  none
attr source  dropPkByQueue
attr title  "packets dropped by queue, count"
scalar scenarioPRJP1.node[20].wlan[0].mgmt 	dropPkByQueue:sum(packetBytes) 	0
attr interpolationmode  none
attr source  dropPkByQueue
attr title  "packets dropped by queue, sum(packetBytes)"
scalar scenarioPRJP1.node[20].wlan[0].mac 	"number of received packets" 	3952
scalar scenarioPRJP1.node[20].wlan[0].mac 	"number of collisions" 	19628
scalar scenarioPRJP1.node[20].wlan[0].mac 	"number of internal collisions" 	0
scalar scenarioPRJP1.node[20].wlan[0].mac 	"number of retry for AC 0" 	6052
scalar scenarioPRJP1.node[20].wlan[0].mac 	"number of retry for AC 1" 	0
scalar scenarioPRJP1.node[20].wlan[0].mac 	"number of retry for AC 2" 	0
scalar scenarioPRJP1.node[20].wlan[0].mac 	"number of retry for AC 3" 	0
scalar scenarioPRJP1.node[20].wlan[0].mac 	"sent and received bits" 	12660032
scalar scenarioPRJP1.node[20].wlan[0].mac 	"sent packet within AC 0" 	650
scalar scenarioPRJP1.node[20].wlan[0].mac 	"sent packet within AC 1" 	0
scalar scenarioPRJP1.node[20].wlan[0].mac 	"sent packet within AC 2" 	0
scalar scenarioPRJP1.node[20].wlan[0].mac 	"sent packet within AC 3" 	0
scalar scenarioPRJP1.node[20].wlan[0].mac 	"sent in TXOP " 	0
scalar scenarioPRJP1.node[20].wlan[0].mac 	"sentWithoutRetry AC 0" 	588
scalar scenarioPRJP1.node[20].wlan[0].mac 	"sentWithoutRetry AC 1" 	0
scalar scenarioPRJP1.node[20].wlan[0].mac 	"sentWithoutRetry AC 2" 	0
scalar scenarioPRJP1.node[20].wlan[0].mac 	"sentWithoutRetry AC 3" 	0
scalar scenarioPRJP1.node[20].wlan[0].mac 	"numGivenUp AC 0" 	992
scalar scenarioPRJP1.node[20].wlan[0].mac 	"numGivenUp AC 1" 	0
scalar scenarioPRJP1.node[20].wlan[0].mac 	"numGivenUp AC 2" 	0
scalar scenarioPRJP1.node[20].wlan[0].mac 	"numGivenUp AC 3" 	0
scalar scenarioPRJP1.node[20].wlan[0].mac 	"numDropped AC 0" 	0
scalar scenarioPRJP1.node[20].wlan[0].mac 	"numDropped AC 1" 	0
scalar scenarioPRJP1.node[20].wlan[0].mac 	"numDropped AC 2" 	0
scalar scenarioPRJP1.node[20].wlan[0].mac 	"numDropped AC 3" 	0
scalar scenarioPRJP1.node[20].wlan[0].mac 	rcvdPkFromLL:count 	174622
attr interpolationmode  none
attr source  packetReceivedFromLower
attr title  "packets received from lower layer, count"
scalar scenarioPRJP1.node[20].wlan[0].mac 	rcvdPkFromLL:sum(packetBytes) 	30165874
attr interpolationmode  none
attr source  packetReceivedFromLower
attr title  "packets received from lower layer, sum(packetBytes)"
scalar scenarioPRJP1.node[20].wlan[0].mac 	sentDownPk:count 	26185
attr interpolationmode  none
attr source  packetSentToLower
attr title  "packets sent to lower layer, count"
scalar scenarioPRJP1.node[20].wlan[0].mac 	sentDownPk:sum(packetBytes) 	4794632
attr interpolationmode  none
attr source  packetSentToLower
attr title  "packets sent to lower layer, sum(packetBytes)"
scalar scenarioPRJP1.node[20].wlan[0].mac 	rcvdPkFromHL:count 	16181
attr interpolationmode  none
attr source  packetReceivedFromUpper
attr title  "packets received from higher layer, count"
scalar scenarioPRJP1.node[20].wlan[0].mac 	rcvdPkFromHL:sum(packetBytes) 	2027004
attr interpolationmode  none
attr source  packetReceivedFromUpper
attr title  "packets received from higher layer, sum(packetBytes)"
scalar scenarioPRJP1.node[20].wlan[0].mac 	passedUpPk:count 	74161
attr interpolationmode  none
attr source  packetSentToUpper
attr title  "packets passed to higher layer, count"
scalar scenarioPRJP1.node[20].wlan[0].mac 	passedUpPk:sum(packetBytes) 	7094544
attr interpolationmode  none
attr source  packetSentToUpper
attr title  "packets passed to higher layer, sum(packetBytes)"
statistic scenarioPRJP1.node[20].wlan[0].radio 	radioChannel:histogram
field count 1
field mean 3
field stddev -nan
field sum 3
field sqrsum 9
field min 3
field max 3
attr interpolationmode  sample-hold
attr source  radioChannelChanged
attr title  "Radio channel, histogram"
bin	-INF	0
bin	2	0
bin	3	1
bin	4	0
scalar scenarioPRJP1.node[20].wlan[0].radio 	transmissionState:count 	104740
attr interpolationmode  sample-hold
attr source  transmissionStateChanged
attr title  "Radio transmission state, count"
scalar scenarioPRJP1.node[20].wlan[0].radio 	receptionState:count 	404269
attr interpolationmode  sample-hold
attr source  receptionStateChanged
attr title  "Radio reception state, count"
scalar scenarioPRJP1.node[20].wlan[0].radio 	radioMode:count 	52372
attr interpolationmode  sample-hold
attr source  radioModeChanged
attr title  "Radio mode, count"
statistic scenarioPRJP1.node[20].wlan[0].radio 	symbolErrorRate:histogram
field count 0
field mean -nan
field stddev -nan
field sum 0
field sqrsum 0
field min -nan
field max -nan
attr source  symbolErrorRate
attr title  "Symbol error rate, histogram"
bin	-INF	0
bin	-0.5	0
bin	-0.46666666666667	0
bin	-0.43333333333333	0
bin	-0.4	0
bin	-0.36666666666667	0
bin	-0.33333333333333	0
bin	-0.3	0
bin	-0.26666666666667	0
bin	-0.23333333333333	0
bin	-0.2	0
bin	-0.16666666666667	0
bin	-0.13333333333333	0
bin	-0.1	0
bin	-0.066666666666667	0
bin	-0.033333333333333	0
bin	0	0
bin	0.033333333333333	0
bin	0.066666666666667	0
bin	0.1	0
bin	0.13333333333333	0
bin	0.16666666666667	0
bin	0.2	0
bin	0.23333333333333	0
bin	0.26666666666667	0
bin	0.3	0
bin	0.33333333333333	0
bin	0.36666666666667	0
bin	0.4	0
bin	0.43333333333333	0
bin	0.46666666666667	0
bin	0.5	0
statistic scenarioPRJP1.node[20].wlan[0].radio 	bitErrorRate:histogram
field count 0
field mean -nan
field stddev -nan
field sum 0
field sqrsum 0
field min -nan
field max -nan
attr source  bitErrorRate
attr title  "Bit error rate, histogram"
bin	-INF	0
bin	-0.5	0
bin	-0.46666666666667	0
bin	-0.43333333333333	0
bin	-0.4	0
bin	-0.36666666666667	0
bin	-0.33333333333333	0
bin	-0.3	0
bin	-0.26666666666667	0
bin	-0.23333333333333	0
bin	-0.2	0
bin	-0.16666666666667	0
bin	-0.13333333333333	0
bin	-0.1	0
bin	-0.066666666666667	0
bin	-0.033333333333333	0
bin	0	0
bin	0.033333333333333	0
bin	0.066666666666667	0
bin	0.1	0
bin	0.13333333333333	0
bin	0.16666666666667	0
bin	0.2	0
bin	0.23333333333333	0
bin	0.26666666666667	0
bin	0.3	0
bin	0.33333333333333	0
bin	0.36666666666667	0
bin	0.4	0
bin	0.43333333333333	0
bin	0.46666666666667	0
bin	0.5	0
statistic scenarioPRJP1.node[20].wlan[0].radio 	packetErrorRate:histogram
field count 174622
field mean 0.099725774976044
field stddev 0.29280464018196
field sum 17414.314277867
field sqrsum 16707.71011943
field min 0
field max 1
attr source  packetErrorRate
attr title  "Packet error rate, histogram"
bin	-INF	0
bin	-0.5	0
bin	-0.43333333333333	0
bin	-0.36666666666667	0
bin	-0.3	0
bin	-0.23333333333333	0
bin	-0.16666666666667	0
bin	-0.1	0
bin	-0.033333333333333	154177
bin	0.033333333333333	1309
bin	0.1	631
bin	0.16666666666667	400
bin	0.23333333333333	298
bin	0.3	242
bin	0.36666666666667	205
bin	0.43333333333333	195
bin	0.5	197
bin	0.56666666666667	178
bin	0.63333333333333	178
bin	0.7	169
bin	0.76666666666667	180
bin	0.83333333333333	233
bin	0.9	380
bin	0.96666666666667	15650
bin	1.0333333333333	0
bin	1.1	0
bin	1.1666666666667	0
bin	1.2333333333333	0
bin	1.3	0
bin	1.3666666666667	0
bin	1.4333333333333	0
bin	1.5	0
statistic scenarioPRJP1.node[20].wlan[0].radio 	minSNIR:histogram
field count 174622
field mean 6761.7354137373
field stddev 46818.442274821
field sum 1180747761.4176
field sqrsum 3.9074729261766e+14
field min 0.00017949849203226
field max 7295836.5890914
attr source  minSNIR
attr title  "Min SNIR, histogram"
bin	-INF	0
bin	-473.20958278682	0
bin	-409.93153799603	0
bin	-346.65349320525	0
bin	-283.37544841446	0
bin	-220.09740362367	0
bin	-156.81935883288	0
bin	-93.541314042091	0
bin	-30.263269251303	69952
bin	33.014775539485	18851
bin	96.292820330274	12661
bin	159.57086512106	8410
bin	222.84890991185	6127
bin	286.12695470264	4285
bin	349.40499949343	3209
bin	412.68304428422	2659
bin	475.961089075	1821
bin	539.23913386579	1625
bin	602.51717865658	1668
bin	665.79522344737	1308
bin	729.07326823816	1228
bin	792.35131302895	1020
bin	855.62935781973	1255
bin	918.90740261052	968
bin	982.18544740131	887
bin	1045.4634921921	792
bin	1108.7415369829	650
bin	1172.0195817737	608
bin	1235.2976265645	550
bin	1298.5756713553	531
bin	1361.853716146	551
bin	1425.1317609368	33006
scalar scenarioPRJP1.node[20].lo0.lo 	droppedPkBitError:count 	0
attr interpolationmode  none
attr source  dropPkBitError
attr title  "packets dropped/bit error, count"
scalar scenarioPRJP1.node[20].lo0.lo 	droppedPkBitError:sum(packetBytes) 	0
attr interpolationmode  none
attr source  dropPkBitError
attr title  "packets dropped/bit error, sum(packetBytes)"
scalar scenarioPRJP1.node[20].lo0.lo 	rcvdPkFromHL:count 	0
attr interpolationmode  none
attr source  packetReceivedFromUpper
attr title  "packets received from higher layer, count"
scalar scenarioPRJP1.node[20].lo0.lo 	rcvdPkFromHL:sum(packetBytes) 	0
attr interpolationmode  none
attr source  packetReceivedFromUpper
attr title  "packets received from higher layer, sum(packetBytes)"
scalar scenarioPRJP1.node[20].lo0.lo 	passedUpPk:count 	0
attr interpolationmode  none
attr source  packetSentToUpper
attr title  "packets passed to higher layer, count"
scalar scenarioPRJP1.node[20].lo0.lo 	passedUpPk:sum(packetBytes) 	0
attr interpolationmode  none
attr source  packetSentToUpper
attr title  "packets passed to higher layer, sum(packetBytes)"
scalar scenarioPRJP1.node[40].app 	"Total sent" 	2616
scalar scenarioPRJP1.node[40].app 	"Total received" 	176
scalar scenarioPRJP1.node[40].app 	"Total deleted" 	132
scalar scenarioPRJP1.node[40].app 	dropPk:count 	132
attr interpolationmode  none
attr source  dropPk
attr title  "packets dropped, count"
scalar scenarioPRJP1.node[40].app 	dropPk:sum(packetBytes) 	67584
attr interpolationmode  none
attr source  dropPk
attr title  "packets dropped, sum(packetBytes)"
scalar scenarioPRJP1.node[40].app 	outOfOrderPk:count 	84
attr interpolationmode  none
attr source  outOfOrderPk
attr title  "packets received out of order, count"
scalar scenarioPRJP1.node[40].app 	outOfOrderPk:sum(packetBytes) 	43008
attr interpolationmode  none
attr source  outOfOrderPk
attr title  "packets received out of order, sum(packetBytes)"
scalar scenarioPRJP1.node[40].app 	rcvdPk:count 	176
attr interpolationmode  none
attr source  rcvdPk
attr title  "packets received, count"
scalar scenarioPRJP1.node[40].app 	rcvdPk:sum(packetBytes) 	90112
attr interpolationmode  none
attr source  rcvdPk
attr title  "packets received, sum(packetBytes)"
statistic scenarioPRJP1.node[40].app 	endToEndDelay:histogram
field count 176
field mean 1.8924638983143
field stddev 4.2624758725093
field sum 333.07364610332
field sqrsum 3809.8524493822
field min 0.000945064071
field max 19.09905494002
attr interpolationmode  none
attr source  messageAge(rcvdPk)
attr title  "delay, histogram"
attr unit  s
bin	-INF	0
bin	-9.5426406085335	0
bin	-8.2701624624162	0
bin	-6.997684316299	0
bin	-5.7252061701817	0
bin	-4.4527280240644	0
bin	-3.1802498779472	0
bin	-1.9077717318299	0
bin	-0.63529358571263	135
bin	0.63718456040463	6
bin	1.9096627065219	4
bin	3.1821408526392	4
bin	4.4546189987564	1
bin	5.7270971448737	2
bin	6.999575290991	5
bin	8.2720534371082	3
bin	9.5445315832255	3
bin	10.817009729343	4
bin	12.08948787546	1
bin	13.361966021577	2
bin	14.634444167695	3
bin	15.906922313812	0
bin	17.179400459929	1
bin	18.451878606046	2
bin	19.724356752164	0
bin	20.996834898281	0
bin	22.269313044398	0
bin	23.541791190515	0
bin	24.814269336633	0
bin	26.08674748275	0
bin	27.359225628867	0
bin	28.631703774985	0
scalar scenarioPRJP1.node[40].app 	sentPk:count 	2616
attr interpolationmode  none
attr source  sentPk
attr title  "packets sent, count"
scalar scenarioPRJP1.node[40].app 	sentPk:sum(packetBytes) 	1339392
attr interpolationmode  none
attr source  sentPk
attr title  "packets sent, sum(packetBytes)"
scalar scenarioPRJP1.node[40].udp 	droppedPkBadChecksum:count 	0
attr interpolationmode  none
attr title  "packets dropped (checksum error), count"
scalar scenarioPRJP1.node[40].udp 	droppedPkWrongPort:count 	0
attr interpolationmode  none
attr title  "packets dropped (wrong port), count"
scalar scenarioPRJP1.node[40].udp 	passedUpPk:count 	392
attr interpolationmode  none
attr title  "packets passed up, count"
scalar scenarioPRJP1.node[40].udp 	rcvdPk:count 	392
attr interpolationmode  none
attr source  rcvdPk
attr title  "packets received, count"
scalar scenarioPRJP1.node[40].udp 	rcvdPk:sum(packetBytes) 	203840
attr interpolationmode  none
attr source  rcvdPk
attr title  "packets received, sum(packetBytes)"
scalar scenarioPRJP1.node[40].udp 	sentPk:count 	2616
attr interpolationmode  none
attr source  sentPk
attr title  "packets sent, count"
scalar scenarioPRJP1.node[40].udp 	sentPk:sum(packetBytes) 	1360320
attr interpolationmode  none
attr source  sentPk
attr title  "packets sent, sum(packetBytes)"
scalar scenarioPRJP1.node[40].networkLayer.arp 	failedARPResolution:count 	4
attr title  "ARP failed resolutions, count"
scalar scenarioPRJP1.node[40].networkLayer.arp 	completedARPResolution:count 	445
attr title  "ARP completed resolutions, count"
scalar scenarioPRJP1.node[40].networkLayer.arp 	initiatedARPResolution:count 	56
attr title  "ARP initiated resolutions, count"
scalar scenarioPRJP1.node[40].networkLayer.arp 	sentReply:count 	53
attr title  "ARP replies sent, count"
scalar scenarioPRJP1.node[40].networkLayer.arp 	sentReq:count 	75
attr title  "ARP request sent, count"
scalar scenarioPRJP1.node[40].mobility 	startTime 	4.9
scalar scenarioPRJP1.node[40].mobility 	totalTime 	945
scalar scenarioPRJP1.node[40].mobility 	stopTime 	950
scalar scenarioPRJP1.node[40].mobility 	minSpeed 	2.4756108794216e-13
scalar scenarioPRJP1.node[40].mobility 	maxSpeed 	17.802733337666
scalar scenarioPRJP1.node[40].mobility 	totalDistance 	8983.3990464996
scalar scenarioPRJP1.node[40].mobility 	totalCO2Emission 	2452.2289057046
scalar scenarioPRJP1.node[40].wlan[0].mgmt 	dataQueueLen:max 	16
attr interpolationmode  sample-hold
attr title  "data queue length, max"
scalar scenarioPRJP1.node[40].wlan[0].mgmt 	dataQueueLen:timeavg 	0
attr interpolationmode  sample-hold
attr title  "data queue length, timeavg"
scalar scenarioPRJP1.node[40].wlan[0].mgmt 	dropPkByQueue:count 	0
attr interpolationmode  none
attr source  dropPkByQueue
attr title  "packets dropped by queue, count"
scalar scenarioPRJP1.node[40].wlan[0].mgmt 	dropPkByQueue:sum(packetBytes) 	0
attr interpolationmode  none
attr source  dropPkByQueue
attr title  "packets dropped by queue, sum(packetBytes)"
scalar scenarioPRJP1.node[40].wlan[0].mac 	"number of received packets" 	8622
scalar scenarioPRJP1.node[40].wlan[0].mac 	"number of collisions" 	17743
scalar scenarioPRJP1.node[40].wlan[0].mac 	"number of internal collisions" 	0
scalar scenarioPRJP1.node[40].wlan[0].mac 	"number of retry for AC 0" 	5422
scalar scenarioPRJP1.node[40].wlan[0].mac 	"number of retry for AC 1" 	0
scalar scenarioPRJP1.node[40].wlan[0].mac 	"number of retry for AC 2" 	0
scalar scenarioPRJP1.node[40].wlan[0].mac 	"number of retry for AC 3" 	0
scalar scenarioPRJP1.node[40].wlan[0].mac 	"sent and received bits" 	16582976
scalar scenarioPRJP1.node[40].wlan[0].mac 	"sent packet within AC 0" 	5790
scalar scenarioPRJP1.node[40].wlan[0].mac 	"sent packet within AC 1" 	0
scalar scenarioPRJP1.node[40].wlan[0].mac 	"sent packet within AC 2" 	0
scalar scenarioPRJP1.node[40].wlan[0].mac 	"sent packet within AC 3" 	0
scalar scenarioPRJP1.node[40].wlan[0].mac 	"sent in TXOP " 	0
scalar scenarioPRJP1.node[40].wlan[0].mac 	"sentWithoutRetry AC 0" 	5677
scalar scenarioPRJP1.node[40].wlan[0].mac 	"sentWithoutRetry AC 1" 	0
scalar scenarioPRJP1.node[40].wlan[0].mac 	"sentWithoutRetry AC 2" 	0
scalar scenarioPRJP1.node[40].wlan[0].mac 	"sentWithoutRetry AC 3" 	0
scalar scenarioPRJP1.node[40].wlan[0].mac 	"numGivenUp AC 0" 	879
scalar scenarioPRJP1.node[40].wlan[0].mac 	"numGivenUp AC 1" 	0
scalar scenarioPRJP1.node[40].wlan[0].mac 	"numGivenUp AC 2" 	0
scalar scenarioPRJP1.node[40].wlan[0].mac 	"numGivenUp AC 3" 	0
scalar scenarioPRJP1.node[40].wlan[0].mac 	"numDropped AC 0" 	0
scalar scenarioPRJP1.node[40].wlan[0].mac 	"numDropped AC 1" 	0
scalar scenarioPRJP1.node[40].wlan[0].mac 	"numDropped AC 2" 	0
scalar scenarioPRJP1.node[40].wlan[0].mac 	"numDropped AC 3" 	0
scalar scenarioPRJP1.node[40].wlan[0].mac 	rcvdPkFromLL:count 	165425
attr interpolationmode  none
attr source  packetReceivedFromLower
attr title  "packets received from lower layer, count"
scalar scenarioPRJP1.node[40].wlan[0].mac 	rcvdPkFromLL:sum(packetBytes) 	26970380
attr interpolationmode  none
attr source  packetReceivedFromLower
attr title  "packets received from lower layer, sum(packetBytes)"
scalar scenarioPRJP1.node[40].wlan[0].mac 	sentDownPk:count 	35255
attr interpolationmode  none
attr source  packetSentToLower
attr title  "packets sent to lower layer, count"
scalar scenarioPRJP1.node[40].wlan[0].mac 	sentDownPk:sum(packetBytes) 	4890080
attr interpolationmode  none
attr source  packetSentToLower
attr title  "packets sent to lower layer, sum(packetBytes)"
scalar scenarioPRJP1.node[40].wlan[0].mac 	rcvdPkFromHL:count 	21211
attr interpolationmode  none
attr source  packetReceivedFromUpper
attr title  "packets received from higher layer, count"
scalar scenarioPRJP1.node[40].wlan[0].mac 	rcvdPkFromHL:sum(packetBytes) 	2450828
attr interpolationmode  none
attr source  packetReceivedFromUpper
attr title  "packets received from higher layer, sum(packetBytes)"
scalar scenarioPRJP1.node[40].wlan[0].mac 	passedUpPk:count 	67596
attr interpolationmode  none
attr source  packetSentToUpper
attr title  "packets passed to higher layer, count"
scalar scenarioPRJP1.node[40].wlan[0].mac 	passedUpPk:sum(packetBytes) 	6460760
attr interpolationmode  none
attr source  packetSentToUpper
attr title  "packets passed to higher layer, sum(packetBytes)"
statistic scenarioPRJP1.node[40].wlan[0].radio 	radioChannel:histogram
field count 1
field mean 3
field stddev -nan
field sum 3
field sqrsum 9
field min 3
field max 3
attr interpolationmode  sample-hold
attr source  radioChannelChanged
attr title  "Radio channel, histogram"
bin	-INF	0
bin	2	0
bin	3	1
bin	4	0
scalar scenarioPRJP1.node[40].wlan[0].radio 	transmissionState:count 	141020
attr interpolationmode  sample-hold
attr source  transmissionStateChanged
attr title  "Radio transmission state, count"
scalar scenarioPRJP1.node[40].wlan[0].radio 	receptionState:count 	403368
attr interpolationmode  sample-hold
attr source  receptionStateChanged
attr title  "Radio reception state, count"
scalar scenarioPRJP1.node[40].wlan[0].radio 	radioMode:count 	70512
attr interpolationmode  sample-hold
attr source  radioModeChanged
attr title  "Radio mode, count"
statistic scenarioPRJP1.node[40].wlan[0].radio 	symbolErrorRate:histogram
field count 0
field mean -nan
field stddev -nan
field sum 0
field sqrsum 0
field min -nan
field max -nan
attr source  symbolErrorRate
attr title  "Symbol error rate, histogram"
bin	-INF	0
bin	-0.5	0
bin	-0.46666666666667	0
bin	-0.43333333333333	0
bin	-0.4	0
bin	-0.36666666666667	0
bin	-0.33333333333333	0
bin	-0.3	0
bin	-0.26666666666667	0
bin	-0.23333333333333	0
bin	-0.2	0
bin	-0.16666666666667	0
bin	-0.13333333333333	0
bin	-0.1	0
bin	-0.066666666666667	0
bin	-0.033333333333333	0
bin	0	0
bin	0.033333333333333	0
bin	0.066666666666667	0
bin	0.1	0
bin	0.13333333333333	0
bin	0.16666666666667	0
bin	0.2	0
bin	0.23333333333333	0
bin	0.26666666666667	0
bin	0.3	0
bin	0.33333333333333	0
bin	0.36666666666667	0
bin	0.4	0
bin	0.43333333333333	0
bin	0.46666666666667	0
bin	0.5	0
statistic scenarioPRJP1.node[40].wlan[0].radio 	bitErrorRate:histogram
field count 0
field mean -nan
field stddev -nan
field sum 0
field sqrsum 0
field min -nan
field max -nan
attr source  bitErrorRate
attr title  "Bit error rate, histogram"
bin	-INF	0
bin	-0.5	0
bin	-0.46666666666667	0
bin	-0.43333333333333	0
bin	-0.4	0
bin	-0.36666666666667	0
bin	-0.33333333333333	0
bin	-0.3	0
bin	-0.26666666666667	0
bin	-0.23333333333333	0
bin	-0.2	0
bin	-0.16666666666667	0
bin	-0.13333333333333	0
bin	-0.1	0
bin	-0.066666666666667	0
bin	-0.033333333333333	0
bin	0	0
bin	0.033333333333333	0
bin	0.066666666666667	0
bin	0.1	0
bin	0.13333333333333	0
bin	0.16666666666667	0
bin	0.2	0
bin	0.23333333333333	0
bin	0.26666666666667	0
bin	0.3	0
bin	0.33333333333333	0
bin	0.36666666666667	0
bin	0.4	0
bin	0.43333333333333	0
bin	0.46666666666667	0
bin	0.5	0
statistic scenarioPRJP1.node[40].wlan[0].radio 	packetErrorRate:histogram
field count 165425
field mean 0.093361190467008
field stddev 0.2837320364837
field sum 15444.274933005
field sqrsum 14759.167840886
field min 0
field max 1
attr source  packetErrorRate
attr title  "Packet error rate, histogram"
bin	-INF	0
bin	-8.5890298762159e-09	0
bin	-7.4438258927204e-09	0
bin	-6.298621909225e-09	0
bin	-5.1534179257295e-09	0
bin	-4.0082139422341e-09	0
bin	-2.8630099587386e-09	0
bin	-1.7178059752432e-09	0
bin	-5.7260199174773e-10	131536
bin	5.7260199174773e-10	641
bin	1.7178059752432e-09	318
bin	2.8630099587386e-09	200
bin	4.0082139422341e-09	152
bin	5.1534179257295e-09	135
bin	6.298621909225e-09	106
bin	7.4438258927204e-09	96
bin	8.5890298762159e-09	84
bin	9.7342338597114e-09	89
bin	1.0879437843207e-08	55
bin	1.2024641826702e-08	57
bin	1.3169845810198e-08	56
bin	1.4315049793693e-08	51
bin	1.5460253777189e-08	51
bin	1.6605457760684e-08	51
bin	1.775066174418e-08	52
bin	1.8895865727675e-08	44
bin	2.004106971117e-08	31
bin	2.1186273694666e-08	47
bin	2.2331477678161e-08	32
bin	2.3476681661657e-08	29
bin	2.4621885645152e-08	21
bin	2.5767089628648e-08	31491
statistic scenarioPRJP1.node[40].wlan[0].radio 	minSNIR:histogram
field count 165425
field mean 22783.498302001
field stddev 102127.40699282
field sum 3768960206.6086
field sqrsum 1.8112436192931e+15
field min 0.00022466346949988
field max 753239.71923443
attr source  minSNIR
attr title  "Min SNIR, histogram"
bin	-INF	0
bin	-286.55185091913	0
bin	-247.71386368875	0
bin	-208.87587645837	0
bin	-170.037889228	0
bin	-131.19990199762	0
bin	-92.361914767241	0
bin	-53.523927536863	0
bin	-14.685940306486	54744
bin	24.152046923892	12648
bin	62.990034154269	6015
bin	101.82802138465	6320
bin	140.66600861502	6377
bin	179.5039958454	4482
bin	218.34198307578	3903
bin	257.17997030616	2765
bin	296.01795753653	2772
bin	334.85594476691	2460
bin	373.69393199729	1622
bin	412.53191922767	1623
bin	451.36990645804	1383
bin	490.20789368842	1147
bin	529.0458809188	1026
bin	567.88386814918	892
bin	606.72185537955	972
bin	645.55984260993	729
bin	684.39782984031	684
bin	723.23581707069	599
bin	762.07380430106	525
bin	800.91179153144	438
bin	839.74977876182	491
bin	878.5877659922	50808
scalar scenarioPRJP1.node[40].lo0.lo 	droppedPkBitError:count 	0
attr interpolationmode  none
attr source  dropPkBitError
attr title  "packets dropped/bit error, count"
scalar scenarioPRJP1.node[40].lo0.lo 	droppedPkBitError:sum(packetBytes) 	0
attr interpolationmode  none
attr source  dropPkBitError
attr title  "packets dropped/bit error, sum(packetBytes)"
scalar scenarioPRJP1.node[40].lo0.lo 	rcvdPkFromHL:count 	1
attr interpolationmode  none
attr source  packetReceivedFromUpper
attr title  "packets received from higher layer, count"
scalar scenarioPRJP1.node[40].lo0.lo 	rcvdPkFromHL:sum(packetBytes) 	56
attr interpolationmode  none
attr source  packetReceivedFromUpper
attr title  "packets received from higher layer, sum(packetBytes)"
scalar scenarioPRJP1.node[40].lo0.lo 	passedUpPk:count 	1
attr interpolationmode  none
attr source  packetSentToUpper
attr title  "packets passed to higher layer, count"
scalar scenarioPRJP1.node[40].lo0.lo 	passedUpPk:sum(packetBytes) 	56
attr interpolationmode  none
attr source  packetSentToUpper
attr title  "packets passed to higher layer, sum(packetBytes)"
scalar scenarioPRJP1.node[60].app 	"Total sent" 	2611
scalar scenarioPRJP1.node[60].app 	"Total received" 	137
scalar scenarioPRJP1.node[60].app 	"Total deleted" 	107
scalar scenarioPRJP1.node[60].app 	dropPk:count 	107
attr interpolationmode  none
attr source  dropPk
attr title  "packets dropped, count"
scalar scenarioPRJP1.node[60].app 	dropPk:sum(packetBytes) 	54784
attr interpolationmode  none
attr source  dropPk
attr title  "packets dropped, sum(packetBytes)"
scalar scenarioPRJP1.node[60].app 	outOfOrderPk:count 	35
attr interpolationmode  none
attr source  outOfOrderPk
attr title  "packets received out of order, count"
scalar scenarioPRJP1.node[60].app 	outOfOrderPk:sum(packetBytes) 	17920
attr interpolationmode  none
attr source  outOfOrderPk
attr title  "packets received out of order, sum(packetBytes)"
scalar scenarioPRJP1.node[60].app 	rcvdPk:count 	137
attr interpolationmode  none
attr source  rcvdPk
attr title  "packets received, count"
scalar scenarioPRJP1.node[60].app 	rcvdPk:sum(packetBytes) 	70144
attr interpolationmode  none
attr source  rcvdPk
attr title  "packets received, sum(packetBytes)"
statistic scenarioPRJP1.node[60].app 	endToEndDelay:histogram
field count 137
field mean 1.2462018435685
field stddev 3.8351520159984
field sum 170.72965256889
field sqrsum 2213.1047818542
field min 0.000945011007
field max 19.457979673453
attr interpolationmode  none
attr source  messageAge(rcvdPk)
attr title  "delay, histogram"
attr unit  s
bin	-INF	0
bin	-9.727572320216	0
bin	-8.4304366760529	0
bin	-7.1333010318899	0
bin	-5.8361653877268	0
bin	-4.5390297435637	0
bin	-3.2418940994007	0
bin	-1.9447584552376	0
bin	-0.64762281107453	116
bin	0.64951283308853	3
bin	1.9466484772516	4
bin	3.2437841214147	2
bin	4.5409197655777	3
bin	5.8380554097408	0
bin	7.1351910539039	0
bin	8.4323266980669	1
bin	9.72946234223	1
bin	11.026597986393	1
bin	12.323733630556	1
bin	13.620869274719	0
bin	14.918004918882	1
bin	16.215140563045	2
bin	17.512276207208	0
bin	18.809411851371	2
bin	20.106547495535	0
bin	21.403683139698	0
bin	22.700818783861	0
bin	23.997954428024	0
bin	25.295090072187	0
bin	26.59222571635	0
bin	27.889361360513	0
bin	29.186497004676	0
scalar scenarioPRJP1.node[60].app 	sentPk:count 	2611
attr interpolationmode  none
attr source  sentPk
attr title  "packets sent, count"
scalar scenarioPRJP1.node[60].app 	sentPk:sum(packetBytes) 	1336832
attr interpolationmode  none
attr source  sentPk
attr title  "packets sent, sum(packetBytes)"
scalar scenarioPRJP1.node[60].udp 	droppedPkBadChecksum:count 	0
attr interpolationmode  none
attr title  "packets dropped (checksum error), count"
scalar scenarioPRJP1.node[60].udp 	droppedPkWrongPort:count 	0
attr interpolationmode  none
attr title  "packets dropped (wrong port), count"
scalar scenarioPRJP1.node[60].udp 	passedUpPk:count 	279
attr interpolationmode  none
attr title  "packets passed up, count"
scalar scenarioPRJP1.node[60].udp 	rcvdPk:count 	279
attr interpolationmode  none
attr source  rcvdPk
attr title  "packets received, count"
scalar scenarioPRJP1.node[60].udp 	rcvdPk:sum(packetBytes) 	145080
attr interpolationmode  none
attr source  rcvdPk
attr title  "packets received, sum(packetBytes)"
scalar scenarioPRJP1.node[60].udp 	sentPk:count 	2611
attr interpolationmode  none
attr source  sentPk
attr title  "packets sent, count"
scalar scenarioPRJP1.node[60].udp 	sentPk:sum(packetBytes) 	1357720
attr interpolationmode  none
attr source  sentPk
attr title  "packets sent, sum(packetBytes)"
scalar scenarioPRJP1.node[60].networkLayer.arp 	failedARPResolution:count 	2
attr title  "ARP failed resolutions, count"
scalar scenarioPRJP1.node[60].networkLayer.arp 	completedARPResolution:count 	489
attr title  "ARP completed resolutions, count"
scalar scenarioPRJP1.node[60].networkLayer.arp 	initiatedARPResolution:count 	54
attr title  "ARP initiated resolutions, count"
scalar scenarioPRJP1.node[60].networkLayer.arp 	sentReply:count 	56
attr title  "ARP replies sent, count"
scalar scenarioPRJP1.node[60].networkLayer.arp 	sentReq:count 	66
attr title  "ARP request sent, count"
scalar scenarioPRJP1.node[60].mobility 	startTime 	7.3
scalar scenarioPRJP1.node[60].mobility 	totalTime 	942.6
scalar scenarioPRJP1.node[60].mobility 	stopTime 	950
scalar scenarioPRJP1.node[60].mobility 	minSpeed 	2.4755814830861e-13
scalar scenarioPRJP1.node[60].mobility 	maxSpeed 	16.147435093615
scalar scenarioPRJP1.node[60].mobility 	totalDistance 	9287.7459492697
scalar scenarioPRJP1.node[60].mobility 	totalCO2Emission 	2284.129358553
scalar scenarioPRJP1.node[60].wlan[0].mgmt 	dataQueueLen:max 	19
attr interpolationmode  sample-hold
attr title  "data queue length, max"
scalar scenarioPRJP1.node[60].wlan[0].mgmt 	dataQueueLen:timeavg 	0
attr interpolationmode  sample-hold
attr title  "data queue length, timeavg"
scalar scenarioPRJP1.node[60].wlan[0].mgmt 	dropPkByQueue:count 	0
attr interpolationmode  none
attr source  dropPkByQueue
attr title  "packets dropped by queue, count"
scalar scenarioPRJP1.node[60].wlan[0].mgmt 	dropPkByQueue:sum(packetBytes) 	0
attr interpolationmode  none
attr source  dropPkByQueue
attr title  "packets dropped by queue, sum(packetBytes)"
scalar scenarioPRJP1.node[60].wlan[0].mac 	"number of received packets" 	4256
scalar scenarioPRJP1.node[60].wlan[0].mac 	"number of collisions" 	16438
scalar scenarioPRJP1.node[60].wlan[0].mac 	"number of internal collisions" 	0
scalar scenarioPRJP1.node[60].wlan[0].mac 	"number of retry for AC 0" 	6362
scalar scenarioPRJP1.node[60].wlan[0].mac 	"number of retry for AC 1" 	6
scalar scenarioPRJP1.node[60].wlan[0].mac 	"number of retry for AC 2" 	0
scalar scenarioPRJP1.node[60].wlan[0].mac 	"number of retry for AC 3" 	0
scalar scenarioPRJP1.node[60].wlan[0].mac 	"sent and received bits" 	13113248
scalar scenarioPRJP1.node[60].wlan[0].mac 	"sent packet within AC 0" 	668
scalar scenarioPRJP1.node[60].wlan[0].mac 	"sent packet within AC 1" 	0
scalar scenarioPRJP1.node[60].wlan[0].mac 	"sent packet within AC 2" 	0
scalar scenarioPRJP1.node[60].wlan[0].mac 	"sent packet within AC 3" 	0
scalar scenarioPRJP1.node[60].wlan[0].mac 	"sent in TXOP " 	0
scalar scenarioPRJP1.node[60].wlan[0].mac 	"sentWithoutRetry AC 0" 	610
scalar scenarioPRJP1.node[60].wlan[0].mac 	"sentWithoutRetry AC 1" 	0
scalar scenarioPRJP1.node[60].wlan[0].mac 	"sentWithoutRetry AC 2" 	0
scalar scenarioPRJP1.node[60].wlan[0].mac 	"sentWithoutRetry AC 3" 	0
scalar scenarioPRJP1.node[60].wlan[0].mac 	"numGivenUp AC 0" 	1042
scalar scenarioPRJP1.node[60].wlan[0].mac 	"numGivenUp AC 1" 	1
scalar scenarioPRJP1.node[60].wlan[0].mac 	"numGivenUp AC 2" 	0
scalar scenarioPRJP1.node[60].wlan[0].mac 	"numGivenUp AC 3" 	0
scalar scenarioPRJP1.node[60].wlan[0].mac 	"numDropped AC 0" 	0
scalar scenarioPRJP1.node[60].wlan[0].mac 	"numDropped AC 1" 	0
scalar scenarioPRJP1.node[60].wlan[0].mac 	"numDropped AC 2" 	0
scalar scenarioPRJP1.node[60].wlan[0].mac 	"numDropped AC 3" 	0
scalar scenarioPRJP1.node[60].wlan[0].mac 	rcvdPkFromLL:count 	133688
attr interpolationmode  none
attr source  packetReceivedFromLower
attr title  "packets received from lower layer, count"
scalar scenarioPRJP1.node[60].wlan[0].mac 	rcvdPkFromLL:sum(packetBytes) 	24567744
attr interpolationmode  none
attr source  packetReceivedFromLower
attr title  "packets received from lower layer, sum(packetBytes)"
scalar scenarioPRJP1.node[60].wlan[0].mac 	sentDownPk:count 	27342
attr interpolationmode  none
attr source  packetSentToLower
attr title  "packets sent to lower layer, count"
scalar scenarioPRJP1.node[60].wlan[0].mac 	sentDownPk:sum(packetBytes) 	5100140
attr interpolationmode  none
attr source  packetSentToLower
attr title  "packets sent to lower layer, sum(packetBytes)"
scalar scenarioPRJP1.node[60].wlan[0].mac 	rcvdPkFromHL:count 	16718
attr interpolationmode  none
attr source  packetReceivedFromUpper
attr title  "packets received from higher layer, count"
scalar scenarioPRJP1.node[60].wlan[0].mac 	rcvdPkFromHL:sum(packetBytes) 	2117076
attr interpolationmode  none
attr source  packetReceivedFromUpper
attr title  "packets received from higher layer, sum(packetBytes)"
scalar scenarioPRJP1.node[60].wlan[0].mac 	passedUpPk:count 	65738
attr interpolationmode  none
attr source  packetSentToUpper
attr title  "packets passed to higher layer, count"
scalar scenarioPRJP1.node[60].wlan[0].mac 	passedUpPk:sum(packetBytes) 	6350740
attr interpolationmode  none
attr source  packetSentToUpper
attr title  "packets passed to higher layer, sum(packetBytes)"
statistic scenarioPRJP1.node[60].wlan[0].radio 	radioChannel:histogram
field count 1
field mean 3
field stddev -nan
field sum 3
field sqrsum 9
field min 3
field max 3
attr interpolationmode  sample-hold
attr source  radioChannelChanged
attr title  "Radio channel, histogram"
bin	-INF	0
bin	2	0
bin	3	1
bin	4	0
scalar scenarioPRJP1.node[60].wlan[0].radio 	transmissionState:count 	109368
attr interpolationmode  sample-hold
attr source  transmissionStateChanged
attr title  "Radio transmission state, count"
scalar scenarioPRJP1.node[60].wlan[0].radio 	receptionState:count 	324173
attr interpolationmode  sample-hold
attr source  receptionStateChanged
attr title  "Radio reception state, count"
scalar scenarioPRJP1.node[60].wlan[0].radio 	radioMode:count 	54686
attr interpolationmode  sample-hold
attr source  radioModeChanged
attr title  "Radio mode, count"
statistic scenarioPRJP1.node[60].wlan[0].radio 	symbolErrorRate:histogram
field count 0
field mean -nan
field stddev -nan
field sum 0
field sqrsum 0
field min -nan
field max -nan
attr source  symbolErrorRate
attr title  "Symbol error rate, histogram"
bin	-INF	0
bin	-0.5	0
bin	-0.46666666666667	0
bin	-0.43333333333333	0
bin	-0.4	0
bin	-0.36666666666667	0
bin	-0.33333333333333	0
bin	-0.3	0
bin	-0.26666666666667	0
bin	-0.23333333333333	0
bin	-0.2	0
bin	-0.16666666666667	0
bin	-0.13333333333333	0
bin	-0.1	0
bin	-0.066666666666667	0
bin	-0.033333333333333	0
bin	0	0
bin	0.033333333333333	0
bin	0.066666666666667	0
bin	0.1	0
bin	0.13333333333333	0
bin	0.16666666666667	0
bin	0.2	0
bin	0.23333333333333	0
bin	0.26666666666667	0
bin	0.3	0
bin	0.33333333333333	0
bin	0.36666666666667	0
bin	0.4	0
bin	0.43333333333333	0
bin	0.46666666666667	0
bin	0.5	0
statistic scenarioPRJP1.node[60].wlan[0].radio 	bitErrorRate:histogram
field count 0
field mean -nan
field stddev -nan
field sum 0
field sqrsum 0
field min -nan
field max -nan
attr source  bitErrorRate
attr title  "Bit error rate, histogram"
bin	-INF	0
bin	-0.5	0
bin	-0.46666666666667	0
bin	-0.43333333333333	0
bin	-0.4	0
bin	-0.36666666666667	0
bin	-0.33333333333333	0
bin	-0.3	0
bin	-0.26666666666667	0
bin	-0.23333333333333	0
bin	-0.2	0
bin	-0.16666666666667	0
bin	-0.13333333333333	0
bin	-0.1	0
bin	-0.066666666666667	0
bin	-0.033333333333333	0
bin	0	0
bin	0.033333333333333	0
bin	0.066666666666667	0
bin	0.1	0
bin	0.13333333333333	0
bin	0.16666666666667	0
bin	0.2	0
bin	0.23333333333333	0
bin	0.26666666666667	0
bin	0.3	0
bin	0.33333333333333	0
bin	0.36666666666667	0
bin	0.4	0
bin	0.43333333333333	0
bin	0.46666666666667	0
bin	0.5	0
statistic scenarioPRJP1.node[60].wlan[0].radio 	packetErrorRate:histogram
field count 133688
field mean 0.10431113554949
field stddev 0.29693242065469
field sum 13945.14708934
field sqrsum 13241.664840756
field min 0
field max 1
attr source  packetErrorRate
attr title  "Packet error rate, histogram"
bin	-INF	0
bin	-0.22723904226228	0
bin	-0.19694050329398	0
bin	-0.16664196432567	0
bin	-0.13634342535737	0
bin	-0.10604488638906	0
bin	-0.075746347420761	0
bin	-0.045447808452456	0
bin	-0.015149269484152	115876
bin	0.015149269484152	1288
bin	0.045447808452456	563
bin	0.075746347420761	379
bin	0.10604488638906	314
bin	0.13634342535737	213
bin	0.16664196432567	169
bin	0.19694050329398	187
bin	0.22723904226228	129
bin	0.25753758123059	121
bin	0.28783612019889	119
bin	0.31813465916719	117
bin	0.3484331981355	121
bin	0.3787317371038	99
bin	0.40903027607211	105
bin	0.43932881504041	109
bin	0.46962735400872	96
bin	0.49992589297702	102
bin	0.53022443194532	81
bin	0.56052297091363	65
bin	0.59082150988193	80
bin	0.62112004885024	85
bin	0.65141858781854	88
bin	0.68171712678685	13182
statistic scenarioPRJP1.node[60].wlan[0].radio 	minSNIR:histogram
field count 133688
field mean 7122.1547458665
field stddev 56166.025694503
field sum 952146623.6654
field sqrsum 4.2851334604034e+14
field min 0.00016782445604916
field max 753239.71923443
attr source  minSNIR
attr title  "Min SNIR, histogram"
bin	-INF	0
bin	-805.58124099307	0
bin	-697.9252142227	0
bin	-590.26918745233	0
bin	-482.61316068196	0
bin	-374.95713391159	0
bin	-267.30110714122	0
bin	-159.64508037085	0
bin	-51.989053600476	68021
bin	55.666973169896	17377
bin	163.32299994027	10750
bin	270.97902671064	6591
bin	378.63505348101	3585
bin	486.29108025138	2414
bin	593.94710702175	1779
bin	701.60313379212	1243
bin	809.25916056249	960
bin	916.91518733287	819
bin	1024.5712141032	800
bin	1132.2272408736	793
bin	1239.883267644	674
bin	1347.5392944144	591
bin	1455.1953211847	508
bin	1562.8513479551	545
bin	1670.5073747255	407
bin	1778.1634014958	375
bin	1885.8194282662	408
bin	1993.4754550366	369
bin	2101.131481807	329
bin	2208.7875085773	323
bin	2316.4435353477	292
bin	2424.0995621181	13735
scalar scenarioPRJP1.node[60].lo0.lo 	droppedPkBitError:count 	0
attr interpolationmode  none
attr source  dropPkBitError
attr title  "packets dropped/bit error, count"
scalar scenarioPRJP1.node[60].lo0.lo 	droppedPkBitError:sum(packetBytes) 	0
attr interpolationmode  none
attr source  dropPkBitError
attr title  "packets dropped/bit error, sum(packetBytes)"
scalar scenarioPRJP1.node[60].lo0.lo 	rcvdPkFromHL:count 	0
attr interpolationmode  none
attr source  packetReceivedFromUpper
attr title  "packets received from higher layer, count"
scalar scenarioPRJP1.node[60].lo0.lo 	rcvdPkFromHL:sum(packetBytes) 	0
attr interpolationmode  none
attr source  packetReceivedFromUpper
attr title  "packets received from higher layer, sum(packetBytes)"
scalar scenarioPRJP1.node[60].lo0.lo 	passedUpPk:count 	0
attr interpolationmode  none
attr source  packetSentToUpper
attr title  "packets passed to higher layer, count"
scalar scenarioPRJP1.node[60].lo0.lo 	passedUpPk:sum(packetBytes) 	0
attr interpolationmode  none
attr source  packetSentToUpper
attr title  "packets passed to higher layer, sum(packetBytes)"
scalar scenarioPRJP1.node[1].app 	"Total sent" 	2626
scalar scenarioPRJP1.node[1].app 	"Total received" 	187
scalar scenarioPRJP1.node[1].app 	"Total deleted" 	84
scalar scenarioPRJP1.node[1].app 	dropPk:count 	84
attr interpolationmode  none
attr source  dropPk
attr title  "packets dropped, count"
scalar scenarioPRJP1.node[1].app 	dropPk:sum(packetBytes) 	43008
attr interpolationmode  none
attr source  dropPk
attr title  "packets dropped, sum(packetBytes)"
scalar scenarioPRJP1.node[1].app 	outOfOrderPk:count 	34
attr interpolationmode  none
attr source  outOfOrderPk
attr title  "packets received out of order, count"
scalar scenarioPRJP1.node[1].app 	outOfOrderPk:sum(packetBytes) 	17408
attr interpolationmode  none
attr source  outOfOrderPk
attr title  "packets received out of order, sum(packetBytes)"
scalar scenarioPRJP1.node[1].app 	rcvdPk:count 	187
attr interpolationmode  none
attr source  rcvdPk
attr title  "packets received, count"
scalar scenarioPRJP1.node[1].app 	rcvdPk:sum(packetBytes) 	95744
attr interpolationmode  none
attr source  rcvdPk
attr title  "packets received, sum(packetBytes)"
statistic scenarioPRJP1.node[1].app 	endToEndDelay:histogram
field count 187
field mean 1.1660761129601
field stddev 3.4010261301511
field sum 218.05623312354
field sqrsum 2405.72820999
field min 0.00094513678
field max 19.047598534035
attr interpolationmode  none
attr source  messageAge(rcvdPk)
attr title  "delay, histogram"
attr unit  s
bin	-INF	0
bin	-9.522381516168	0
bin	-8.2526046250479	0
bin	-6.9828277339277	0
bin	-5.7130508428076	0
bin	-4.4432739516875	0
bin	-3.1734970605673	0
bin	-1.9037201694472	0
bin	-0.63394327832707	155
bin	0.63583361279307	8
bin	1.9056105039132	2
bin	3.1753873950333	6
bin	4.4451642861535	1
bin	5.7149411772736	1
bin	6.9847180683937	2
bin	8.2544949595139	3
bin	9.524271850634	3
bin	10.794048741754	0
bin	12.063825632874	0
bin	13.333602523994	2
bin	14.603379415115	2
bin	15.873156306235	0
bin	17.142933197355	0
bin	18.412710088475	2
bin	19.682486979595	0
bin	20.952263870715	0
bin	22.222040761835	0
bin	23.491817652955	0
bin	24.761594544076	0
bin	26.031371435196	0
bin	27.301148326316	0
bin	28.570925217436	0
scalar scenarioPRJP1.node[1].app 	sentPk:count 	2626
attr interpolationmode  none
attr source  sentPk
attr title  "packets sent, count"
scalar scenarioPRJP1.node[1].app 	sentPk:sum(packetBytes) 	1344512
attr interpolationmode  none
attr source  sentPk
attr title  "packets sent, sum(packetBytes)"
scalar scenarioPRJP1.node[1].udp 	droppedPkBadChecksum:count 	0
attr interpolationmode  none
attr title  "packets dropped (checksum error), count"
scalar scenarioPRJP1.node[1].udp 	droppedPkWrongPort:count 	0
attr interpolationmode  none
attr title  "packets dropped (wrong port), count"
scalar scenarioPRJP1.node[1].udp 	passedUpPk:count 	305
attr interpolationmode  none
attr title  "packets passed up, count"
scalar scenarioPRJP1.node[1].udp 	rcvdPk:count 	305
attr interpolationmode  none
attr source  rcvdPk
attr title  "packets received, count"
scalar scenarioPRJP1.node[1].udp 	rcvdPk:sum(packetBytes) 	158600
attr interpolationmode  none
attr source  rcvdPk
attr title  "packets received, sum(packetBytes)"
scalar scenarioPRJP1.node[1].udp 	sentPk:count 	2626
attr interpolationmode  none
attr source  sentPk
attr title  "packets sent, count"
scalar scenarioPRJP1.node[1].udp 	sentPk:sum(packetBytes) 	1365520
attr interpolationmode  none
attr source  sentPk
attr title  "packets sent, sum(packetBytes)"
scalar scenarioPRJP1.node[1].networkLayer.arp 	failedARPResolution:count 	3
attr title  "ARP failed resolutions, count"
scalar scenarioPRJP1.node[1].networkLayer.arp 	completedARPResolution:count 	458
attr title  "ARP completed resolutions, count"
scalar scenarioPRJP1.node[1].networkLayer.arp 	initiatedARPResolution:count 	70
attr title  "ARP initiated resolutions, count"
scalar scenarioPRJP1.node[1].networkLayer.arp 	sentReply:count 	53
attr title  "ARP replies sent, count"
scalar scenarioPRJP1.node[1].networkLayer.arp 	sentReq:count 	88
attr title  "ARP request sent, count"
scalar scenarioPRJP1.node[1].mobility 	startTime 	0.1
scalar scenarioPRJP1.node[1].mobility 	totalTime 	949.8
scalar scenarioPRJP1.node[1].mobility 	stopTime 	950
scalar scenarioPRJP1.node[1].mobility 	minSpeed 	2.4756026939965e-13
scalar scenarioPRJP1.node[1].mobility 	maxSpeed 	19.846573317767
scalar scenarioPRJP1.node[1].mobility 	totalDistance 	11210.43290025
scalar scenarioPRJP1.node[1].mobility 	totalCO2Emission 	2929.5289497044
scalar scenarioPRJP1.node[1].wlan[0].mgmt 	dataQueueLen:max 	15
attr interpolationmode  sample-hold
attr title  "data queue length, max"
scalar scenarioPRJP1.node[1].wlan[0].mgmt 	dataQueueLen:timeavg 	0
attr interpolationmode  sample-hold
attr title  "data queue length, timeavg"
scalar scenarioPRJP1.node[1].wlan[0].mgmt 	dropPkByQueue:count 	0
attr interpolationmode  none
attr source  dropPkByQueue
attr title  "packets dropped by queue, count"
scalar scenarioPRJP1.node[1].wlan[0].mgmt 	dropPkByQueue:sum(packetBytes) 	0
attr interpolationmode  none
attr source  dropPkByQueue
attr title  "packets dropped by queue, sum(packetBytes)"
scalar scenarioPRJP1.node[1].wlan[0].mac 	"number of received packets" 	4400
scalar scenarioPRJP1.node[1].wlan[0].mac 	"number of collisions" 	14295
scalar scenarioPRJP1.node[1].wlan[0].mac 	"number of internal collisions" 	0
scalar scenarioPRJP1.node[1].wlan[0].mac 	"number of retry for AC 0" 	6164
scalar scenarioPRJP1.node[1].wlan[0].mac 	"number of retry for AC 1" 	0
scalar scenarioPRJP1.node[1].wlan[0].mac 	"number of retry for AC 2" 	0
scalar scenarioPRJP1.node[1].wlan[0].mac 	"number of retry for AC 3" 	0
scalar scenarioPRJP1.node[1].wlan[0].mac 	"sent and received bits" 	13307200
scalar scenarioPRJP1.node[1].wlan[0].mac 	"sent packet within AC 0" 	612
scalar scenarioPRJP1.node[1].wlan[0].mac 	"sent packet within AC 1" 	0
scalar scenarioPRJP1.node[1].wlan[0].mac 	"sent packet within AC 2" 	0
scalar scenarioPRJP1.node[1].wlan[0].mac 	"sent packet within AC 3" 	0
scalar scenarioPRJP1.node[1].wlan[0].mac 	"sent in TXOP " 	0
scalar scenarioPRJP1.node[1].wlan[0].mac 	"sentWithoutRetry AC 0" 	558
scalar scenarioPRJP1.node[1].wlan[0].mac 	"sentWithoutRetry AC 1" 	0
scalar scenarioPRJP1.node[1].wlan[0].mac 	"sentWithoutRetry AC 2" 	0
scalar scenarioPRJP1.node[1].wlan[0].mac 	"sentWithoutRetry AC 3" 	0
scalar scenarioPRJP1.node[1].wlan[0].mac 	"numGivenUp AC 0" 	1012
scalar scenarioPRJP1.node[1].wlan[0].mac 	"numGivenUp AC 1" 	0
scalar scenarioPRJP1.node[1].wlan[0].mac 	"numGivenUp AC 2" 	0
scalar scenarioPRJP1.node[1].wlan[0].mac 	"numGivenUp AC 3" 	0
scalar scenarioPRJP1.node[1].wlan[0].mac 	"numDropped AC 0" 	0
scalar scenarioPRJP1.node[1].wlan[0].mac 	"numDropped AC 1" 	0
scalar scenarioPRJP1.node[1].wlan[0].mac 	"numDropped AC 2" 	0
scalar scenarioPRJP1.node[1].wlan[0].mac 	"numDropped AC 3" 	0
scalar scenarioPRJP1.node[1].wlan[0].mac 	rcvdPkFromLL:count 	132816
attr interpolationmode  none
attr source  packetReceivedFromLower
attr title  "packets received from lower layer, count"
scalar scenarioPRJP1.node[1].wlan[0].mac 	rcvdPkFromLL:sum(packetBytes) 	23436994
attr interpolationmode  none
attr source  packetReceivedFromLower
attr title  "packets received from lower layer, sum(packetBytes)"
scalar scenarioPRJP1.node[1].wlan[0].mac 	sentDownPk:count 	27669
attr interpolationmode  none
attr source  packetSentToLower
attr title  "packets sent to lower layer, count"
scalar scenarioPRJP1.node[1].wlan[0].mac 	sentDownPk:sum(packetBytes) 	4913448
attr interpolationmode  none
attr source  packetSentToLower
attr title  "packets sent to lower layer, sum(packetBytes)"
scalar scenarioPRJP1.node[1].wlan[0].mac 	rcvdPkFromHL:count 	17105
attr interpolationmode  none
attr source  packetReceivedFromUpper
attr title  "packets received from higher layer, count"
scalar scenarioPRJP1.node[1].wlan[0].mac 	rcvdPkFromHL:sum(packetBytes) 	2112180
attr interpolationmode  none
attr source  packetReceivedFromUpper
attr title  "packets received from higher layer, sum(packetBytes)"
scalar scenarioPRJP1.node[1].wlan[0].mac 	passedUpPk:count 	66735
attr interpolationmode  none
attr source  packetSentToUpper
attr title  "packets passed to higher layer, count"
scalar scenarioPRJP1.node[1].wlan[0].mac 	passedUpPk:sum(packetBytes) 	6425972
attr interpolationmode  none
attr source  packetSentToUpper
attr title  "packets passed to higher layer, sum(packetBytes)"
statistic scenarioPRJP1.node[1].wlan[0].radio 	radioChannel:histogram
field count 1
field mean 3
field stddev -nan
field sum 3
field sqrsum 9
field min 3
field max 3
attr interpolationmode  sample-hold
attr source  radioChannelChanged
attr title  "Radio channel, histogram"
bin	-INF	0
bin	2	0
bin	3	1
bin	4	0
scalar scenarioPRJP1.node[1].wlan[0].radio 	transmissionState:count 	110676
attr interpolationmode  sample-hold
attr source  transmissionStateChanged
attr title  "Radio transmission state, count"
scalar scenarioPRJP1.node[1].wlan[0].radio 	receptionState:count 	322619
attr interpolationmode  sample-hold
attr source  receptionStateChanged
attr title  "Radio reception state, count"
scalar scenarioPRJP1.node[1].wlan[0].radio 	radioMode:count 	55340
attr interpolationmode  sample-hold
attr source  radioModeChanged
attr title  "Radio mode, count"
statistic scenarioPRJP1.node[1].wlan[0].radio 	symbolErrorRate:histogram
field count 0
field mean -nan
field stddev -nan
field sum 0
field sqrsum 0
field min -nan
field max -nan
attr source  symbolErrorRate
attr title  "Symbol error rate, histogram"
bin	-INF	0
bin	-0.5	0
bin	-0.46666666666667	0
bin	-0.43333333333333	0
bin	-0.4	0
bin	-0.36666666666667	0
bin	-0.33333333333333	0
bin	-0.3	0
bin	-0.26666666666667	0
bin	-0.23333333333333	0
bin	-0.2	0
bin	-0.16666666666667	0
bin	-0.13333333333333	0
bin	-0.1	0
bin	-0.066666666666667	0
bin	-0.033333333333333	0
bin	0	0
bin	0.033333333333333	0
bin	0.066666666666667	0
bin	0.1	0
bin	0.13333333333333	0
bin	0.16666666666667	0
bin	0.2	0
bin	0.23333333333333	0
bin	0.26666666666667	0
bin	0.3	0
bin	0.33333333333333	0
bin	0.36666666666667	0
bin	0.4	0
bin	0.43333333333333	0
bin	0.46666666666667	0
bin	0.5	0
statistic scenarioPRJP1.node[1].wlan[0].radio 	bitErrorRate:histogram
field count 0
field mean -nan
field stddev -nan
field sum 0
field sqrsum 0
field min -nan
field max -nan
attr source  bitErrorRate
attr title  "Bit error rate, histogram"
bin	-INF	0
bin	-0.5	0
bin	-0.46666666666667	0
bin	-0.43333333333333	0
bin	-0.4	0
bin	-0.36666666666667	0
bin	-0.33333333333333	0
bin	-0.3	0
bin	-0.26666666666667	0
bin	-0.23333333333333	0
bin	-0.2	0
bin	-0.16666666666667	0
bin	-0.13333333333333	0
bin	-0.1	0
bin	-0.066666666666667	0
bin	-0.033333333333333	0
bin	0	0
bin	0.033333333333333	0
bin	0.066666666666667	0
bin	0.1	0
bin	0.13333333333333	0
bin	0.16666666666667	0
bin	0.2	0
bin	0.23333333333333	0
bin	0.26666666666667	0
bin	0.3	0
bin	0.33333333333333	0
bin	0.36666666666667	0
bin	0.4	0
bin	0.43333333333333	0
bin	0.46666666666667	0
bin	0.5	0
statistic scenarioPRJP1.node[1].wlan[0].radio 	packetErrorRate:histogram
field count 132816
field mean 0.091446552518005
field stddev 0.27969186388777
field sum 12145.565319231
field sqrsum 11500.460632589
field min 0
field max 1
attr source  packetErrorRate
attr title  "Packet error rate, histogram"
bin	-INF	0
bin	-0.012223528815181	0
bin	-0.010593724973157	0
bin	-0.008963921131133	0
bin	-0.0073341172891088	0
bin	-0.0057043134470846	0
bin	-0.0040745096050605	0
bin	-0.0024447057630363	0
bin	-0.00081490192101209	114243
bin	0.00081490192101209	1124
bin	0.0024447057630363	514
bin	0.0040745096050605	321
bin	0.0057043134470846	269
bin	0.0073341172891088	209
bin	0.008963921131133	167
bin	0.010593724973157	136
bin	0.012223528815181	124
bin	0.013853332657206	117
bin	0.01548313649923	101
bin	0.017112940341254	111
bin	0.018742744183278	91
bin	0.020372548025302	77
bin	0.022002351867326	79
bin	0.023632155709351	70
bin	0.025261959551375	57
bin	0.026891763393399	68
bin	0.028521567235423	53
bin	0.030151371077447	48
bin	0.031781174919472	55
bin	0.033410978761496	58
bin	0.03504078260352	56
bin	0.036670586445544	14668
statistic scenarioPRJP1.node[1].wlan[0].radio 	minSNIR:histogram
field count 132816
field mean 8300.7885204105
field stddev 59178.013222208
field sum 1102477528.1268
field sqrsum 4.7427451002584e+14
field min 0.00016952395390542
field max 1743503.8686964
attr source  minSNIR
attr title  "Min SNIR, histogram"
bin	-INF	0
bin	-376435.24212718	0
bin	-326243.57273992	0
bin	-276051.90335266	0
bin	-225860.2339654	0
bin	-175668.56457814	0
bin	-125476.89519088	0
bin	-75285.225803625	0
bin	-25093.556416366	127772
bin	25098.112970893	2386
bin	75289.782358153	634
bin	125481.45174541	547
bin	175673.12113267	408
bin	225864.79051993	64
bin	276056.45990719	107
bin	326248.12929445	84
bin	376439.79868171	40
bin	426631.46806897	30
bin	476823.13745623	30
bin	527014.80684349	36
bin	577206.47623075	37
bin	627398.14561801	15
bin	677589.81500527	34
bin	727781.48439253	584
bin	777973.15377978	1
bin	828164.82316704	0
bin	878356.4925543	0
bin	928548.16194156	0
bin	978739.83132882	2
bin	1028931.5007161	1
bin	1079123.1701033	0
bin	1129314.8394906	4
scalar scenarioPRJP1.node[1].lo0.lo 	droppedPkBitError:count 	0
attr interpolationmode  none
attr source  dropPkBitError
attr title  "packets dropped/bit error, count"
scalar scenarioPRJP1.node[1].lo0.lo 	droppedPkBitError:sum(packetBytes) 	0
attr interpolationmode  none
attr source  dropPkBitError
attr title  "packets dropped/bit error, sum(packetBytes)"
scalar scenarioPRJP1.node[1].lo0.lo 	rcvdPkFromHL:count 	0
attr interpolationmode  none
attr source  packetReceivedFromUpper
attr title  "packets received from higher layer, count"
scalar scenarioPRJP1.node[1].lo0.lo 	rcvdPkFromHL:sum(packetBytes) 	0
attr interpolationmode  none
attr source  packetReceivedFromUpper
attr title  "packets received from higher layer, sum(packetBytes)"
scalar scenarioPRJP1.node[1].lo0.lo 	passedUpPk:count 	0
attr interpolationmode  none
attr source  packetSentToUpper
attr title  "packets passed to higher layer, count"
scalar scenarioPRJP1.node[1].lo0.lo 	passedUpPk:sum(packetBytes) 	0
attr interpolationmode  none
attr source  packetSentToUpper
attr title  "packets passed to higher layer, sum(packetBytes)"
scalar scenarioPRJP1.node[36].app 	"Total sent" 	2599
scalar scenarioPRJP1.node[36].app 	"Total received" 	180
scalar scenarioPRJP1.node[36].app 	"Total deleted" 	133
scalar scenarioPRJP1.node[36].app 	dropPk:count 	133
attr interpolationmode  none
attr source  dropPk
attr title  "packets dropped, count"
scalar scenarioPRJP1.node[36].app 	dropPk:sum(packetBytes) 	68096
attr interpolationmode  none
attr source  dropPk
attr title  "packets dropped, sum(packetBytes)"
scalar scenarioPRJP1.node[36].app 	outOfOrderPk:count 	17
attr interpolationmode  none
attr source  outOfOrderPk
attr title  "packets received out of order, count"
scalar scenarioPRJP1.node[36].app 	outOfOrderPk:sum(packetBytes) 	8704
attr interpolationmode  none
attr source  outOfOrderPk
attr title  "packets received out of order, sum(packetBytes)"
scalar scenarioPRJP1.node[36].app 	rcvdPk:count 	180
attr interpolationmode  none
attr source  rcvdPk
attr title  "packets received, count"
scalar scenarioPRJP1.node[36].app 	rcvdPk:sum(packetBytes) 	92160
attr interpolationmode  none
attr source  rcvdPk
attr title  "packets received, sum(packetBytes)"
statistic scenarioPRJP1.node[36].app 	endToEndDelay:histogram
field count 180
field mean 1.1955042409087
field stddev 3.6533359425344
field sum 215.19076336357
field sqrsum 2646.3500383189
field min 0.000945118333
field max 19.400639247807
attr interpolationmode  none
attr source  messageAge(rcvdPk)
attr title  "delay, histogram"
attr unit  s
bin	-INF	0
bin	-9.5344105663175	0
bin	-8.2630298083641	0
bin	-6.9916490504107	0
bin	-5.7202682924573	0
bin	-4.4488875345039	0
bin	-3.1775067765505	0
bin	-1.9061260185971	0
bin	-0.6347452606437	151
bin	0.6366354973097	10
bin	1.9080162552631	2
bin	3.1793970132165	2
bin	4.4507777711699	1
bin	5.7221585291233	0
bin	6.9935392870767	0
bin	8.2649200450301	1
bin	9.5363008029835	4
bin	10.807681560937	3
bin	12.07906231889	0
bin	13.350443076844	2
bin	14.621823834797	1
bin	15.89320459275	0
bin	17.164585350704	1
bin	18.435966108657	2
bin	19.707346866611	0
bin	20.978727624564	0
bin	22.250108382517	0
bin	23.521489140471	0
bin	24.792869898424	0
bin	26.064250656378	0
bin	27.335631414331	0
bin	28.607012172284	0
scalar scenarioPRJP1.node[36].app 	sentPk:count 	2599
attr interpolationmode  none
attr source  sentPk
attr title  "packets sent, count"
scalar scenarioPRJP1.node[36].app 	sentPk:sum(packetBytes) 	1330688
attr interpolationmode  none
attr source  sentPk
attr title  "packets sent, sum(packetBytes)"
scalar scenarioPRJP1.node[36].udp 	droppedPkBadChecksum:count 	0
attr interpolationmode  none
attr title  "packets dropped (checksum error), count"
scalar scenarioPRJP1.node[36].udp 	droppedPkWrongPort:count 	0
attr interpolationmode  none
attr title  "packets dropped (wrong port), count"
scalar scenarioPRJP1.node[36].udp 	passedUpPk:count 	330
attr interpolationmode  none
attr title  "packets passed up, count"
scalar scenarioPRJP1.node[36].udp 	rcvdPk:count 	330
attr interpolationmode  none
attr source  rcvdPk
attr title  "packets received, count"
scalar scenarioPRJP1.node[36].udp 	rcvdPk:sum(packetBytes) 	171600
attr interpolationmode  none
attr source  rcvdPk
attr title  "packets received, sum(packetBytes)"
scalar scenarioPRJP1.node[36].udp 	sentPk:count 	2599
attr interpolationmode  none
attr source  sentPk
attr title  "packets sent, count"
scalar scenarioPRJP1.node[36].udp 	sentPk:sum(packetBytes) 	1351480
attr interpolationmode  none
attr source  sentPk
attr title  "packets sent, sum(packetBytes)"
scalar scenarioPRJP1.node[36].networkLayer.arp 	failedARPResolution:count 	5
attr title  "ARP failed resolutions, count"
scalar scenarioPRJP1.node[36].networkLayer.arp 	completedARPResolution:count 	503
attr title  "ARP completed resolutions, count"
scalar scenarioPRJP1.node[36].networkLayer.arp 	initiatedARPResolution:count 	69
attr title  "ARP initiated resolutions, count"
scalar scenarioPRJP1.node[36].networkLayer.arp 	sentReply:count 	43
attr title  "ARP replies sent, count"
scalar scenarioPRJP1.node[36].networkLayer.arp 	sentReq:count 	88
attr title  "ARP request sent, count"
scalar scenarioPRJP1.node[36].mobility 	startTime 	2.6
scalar scenarioPRJP1.node[36].mobility 	totalTime 	947.3
scalar scenarioPRJP1.node[36].mobility 	stopTime 	950
scalar scenarioPRJP1.node[36].mobility 	minSpeed 	2.475462434172e-13
scalar scenarioPRJP1.node[36].mobility 	maxSpeed 	19.473775067006
scalar scenarioPRJP1.node[36].mobility 	totalDistance 	8681.3758569343
scalar scenarioPRJP1.node[36].mobility 	totalCO2Emission 	2561.2586696179
scalar scenarioPRJP1.node[36].wlan[0].mgmt 	dataQueueLen:max 	22
attr interpolationmode  sample-hold
attr title  "data queue length, max"
scalar scenarioPRJP1.node[36].wlan[0].mgmt 	dataQueueLen:timeavg 	0
attr interpolationmode  sample-hold
attr title  "data queue length, timeavg"
scalar scenarioPRJP1.node[36].wlan[0].mgmt 	dropPkByQueue:count 	0
attr interpolationmode  none
attr source  dropPkByQueue
attr title  "packets dropped by queue, count"
scalar scenarioPRJP1.node[36].wlan[0].mgmt 	dropPkByQueue:sum(packetBytes) 	0
attr interpolationmode  none
attr source  dropPkByQueue
attr title  "packets dropped by queue, sum(packetBytes)"
scalar scenarioPRJP1.node[36].wlan[0].mac 	"number of received packets" 	4104
scalar scenarioPRJP1.node[36].wlan[0].mac 	"number of collisions" 	18479
scalar scenarioPRJP1.node[36].wlan[0].mac 	"number of internal collisions" 	0
scalar scenarioPRJP1.node[36].wlan[0].mac 	"number of retry for AC 0" 	5624
scalar scenarioPRJP1.node[36].wlan[0].mac 	"number of retry for AC 1" 	0
scalar scenarioPRJP1.node[36].wlan[0].mac 	"number of retry for AC 2" 	0
scalar scenarioPRJP1.node[36].wlan[0].mac 	"number of retry for AC 3" 	0
scalar scenarioPRJP1.node[36].wlan[0].mac 	"sent and received bits" 	13303872
scalar scenarioPRJP1.node[36].wlan[0].mac 	"sent packet within AC 0" 	991
scalar scenarioPRJP1.node[36].wlan[0].mac 	"sent packet within AC 1" 	0
scalar scenarioPRJP1.node[36].wlan[0].mac 	"sent packet within AC 2" 	0
scalar scenarioPRJP1.node[36].wlan[0].mac 	"sent packet within AC 3" 	0
scalar scenarioPRJP1.node[36].wlan[0].mac 	"sent in TXOP " 	0
scalar scenarioPRJP1.node[36].wlan[0].mac 	"sentWithoutRetry AC 0" 	914
scalar scenarioPRJP1.node[36].wlan[0].mac 	"sentWithoutRetry AC 1" 	0
scalar scenarioPRJP1.node[36].wlan[0].mac 	"sentWithoutRetry AC 2" 	0
scalar scenarioPRJP1.node[36].wlan[0].mac 	"sentWithoutRetry AC 3" 	0
scalar scenarioPRJP1.node[36].wlan[0].mac 	"numGivenUp AC 0" 	914
scalar scenarioPRJP1.node[36].wlan[0].mac 	"numGivenUp AC 1" 	0
scalar scenarioPRJP1.node[36].wlan[0].mac 	"numGivenUp AC 2" 	0
scalar scenarioPRJP1.node[36].wlan[0].mac 	"numGivenUp AC 3" 	0
scalar scenarioPRJP1.node[36].wlan[0].mac 	"numDropped AC 0" 	0
scalar scenarioPRJP1.node[36].wlan[0].mac 	"numDropped AC 1" 	0
scalar scenarioPRJP1.node[36].wlan[0].mac 	"numDropped AC 2" 	0
scalar scenarioPRJP1.node[36].wlan[0].mac 	"numDropped AC 3" 	0
scalar scenarioPRJP1.node[36].wlan[0].mac 	rcvdPkFromLL:count 	152668
attr interpolationmode  none
attr source  packetReceivedFromLower
attr title  "packets received from lower layer, count"
scalar scenarioPRJP1.node[36].wlan[0].mac 	rcvdPkFromLL:sum(packetBytes) 	29016902
attr interpolationmode  none
attr source  packetReceivedFromLower
attr title  "packets received from lower layer, sum(packetBytes)"
scalar scenarioPRJP1.node[36].wlan[0].mac 	sentDownPk:count 	26708
attr interpolationmode  none
attr source  packetSentToLower
attr title  "packets sent to lower layer, count"
[...]
scalar scenarioPRJP1.node[58].wlan[0].mac 	passedUpPk:sum(packetBytes) 	4699012
attr interpolationmode  none
attr source  packetSentToUpper
attr title  "packets passed to higher layer, sum(packetBytes)"
statistic scenarioPRJP1.node[58].wlan[0].radio 	radioChannel:histogram
field count 1
field mean 3
field stddev -nan
field sum 3
field sqrsum 9
field min 3
field max 3
attr interpolationmode  sample-hold
attr source  radioChannelChanged
attr title  "Radio channel, histogram"
bin	-INF	0
bin	2	0
bin	3	1
bin	4	0
scalar scenarioPRJP1.node[58].wlan[0].radio 	transmissionState:count 	83020
attr interpolationmode  sample-hold
attr source  transmissionStateChanged
attr title  "Radio transmission state, count"
scalar scenarioPRJP1.node[58].wlan[0].radio 	receptionState:count 	284015
attr interpolationmode  sample-hold
attr source  receptionStateChanged
attr title  "Radio reception state, count"
scalar scenarioPRJP1.node[58].wlan[0].radio 	radioMode:count 	41512
attr interpolationmode  sample-hold
attr source  radioModeChanged
attr title  "Radio mode, count"
statistic scenarioPRJP1.node[58].wlan[0].radio 	symbolErrorRate:histogram
field count 0
field mean -nan
field stddev -nan
field sum 0
field sqrsum 0
field min -nan
field max -nan
attr source  symbolErrorRate
attr title  "Symbol error rate, histogram"
bin	-INF	0
bin	-0.5	0
bin	-0.46666666666667	0
bin	-0.43333333333333	0
bin	-0.4	0
bin	-0.36666666666667	0
bin	-0.33333333333333	0
bin	-0.3	0
bin	-0.26666666666667	0
bin	-0.23333333333333	0
bin	-0.2	0
bin	-0.16666666666667	0
bin	-0.13333333333333	0
bin	-0.1	0
bin	-0.066666666666667	0
bin	-0.033333333333333	0
bin	0	0
bin	0.033333333333333	0
bin	0.066666666666667	0
bin	0.1	0
bin	0.13333333333333	0
bin	0.16666666666667	0
bin	0.2	0
bin	0.23333333333333	0
bin	0.26666666666667	0
bin	0.3	0
bin	0.33333333333333	0
bin	0.36666666666667	0
bin	0.4	0
bin	0.43333333333333	0
bin	0.46666666666667	0
bin	0.5	0
statistic scenarioPRJP1.node[58].wlan[0].radio 	bitErrorRate:histogram
field count 0
field mean -nan
field stddev -nan
field sum 0
field sqrsum 0
field min -nan
field max -nan
attr source  bitErrorRate
attr title  "Bit error rate, histogram"
bin	-INF	0
bin	-0.5	0
bin	-0.46666666666667	0
bin	-0.43333333333333	0
bin	-0.4	0
bin	-0.36666666666667	0
bin	-0.33333333333333	0
bin	-0.3	0
bin	-0.26666666666667	0
bin	-0.23333333333333	0
bin	-0.2	0
bin	-0.16666666666667	0
bin	-0.13333333333333	0
bin	-0.1	0
bin	-0.066666666666667	0
bin	-0.033333333333333	0
bin	0	0
bin	0.033333333333333	0
bin	0.066666666666667	0
bin	0.1	0
bin	0.13333333333333	0
bin	0.16666666666667	0
bin	0.2	0
bin	0.23333333333333	0
bin	0.26666666666667	0
bin	0.3	0
bin	0.33333333333333	0
bin	0.36666666666667	0
bin	0.4	0
bin	0.43333333333333	0
bin	0.46666666666667	0
bin	0.5	0
statistic scenarioPRJP1.node[58].wlan[0].radio 	packetErrorRate:histogram
field count 120572
field mean 0.076746206134093
field stddev 0.26028448232219
field sum 9253.4435659999
field sqrsum 8878.6122105961
field min 0
field max 1
attr source  packetErrorRate
attr title  "Packet error rate, histogram"
bin	-INF	0
bin	-0.5	0
bin	-0.46666666666667	0
bin	-0.43333333333333	0
bin	-0.4	0
bin	-0.36666666666667	0
bin	-0.33333333333333	0
bin	-0.3	0
bin	-0.26666666666667	0
bin	-0.23333333333333	0
bin	-0.2	0
bin	-0.16666666666667	0
bin	-0.13333333333333	0
bin	-0.1	0
bin	-0.066666666666667	0
bin	-0.033333333333333	0
bin	0	109669
bin	0.033333333333333	458
bin	0.066666666666667	268
bin	0.1	195
bin	0.13333333333333	166
bin	0.16666666666667	96
bin	0.2	99
bin	0.23333333333333	83
bin	0.26666666666667	81
bin	0.3	63
bin	0.33333333333333	76
bin	0.36666666666667	68
bin	0.4	60
bin	0.43333333333333	45
bin	0.46666666666667	43
bin	0.5	9102
statistic scenarioPRJP1.node[58].wlan[0].radio 	minSNIR:histogram
field count 120572
field mean 23332.161385217
field stddev 82715.935823787
field sum 2813205362.5383
field sqrsum 8.9057602600146e+14
field min 0.00027356790467203
field max 2066978.1257852
attr source  minSNIR
attr title  "Min SNIR, histogram"
bin	-INF	0
bin	-120355.13127313	0
bin	-104305.91950348	0
bin	-88256.70773382	0
bin	-72207.495964164	0
bin	-56158.284194509	0
bin	-40109.072424853	0
bin	-24059.860655197	0
bin	-8010.6488855406	97957
bin	8038.5628841153	6627
bin	24087.774653771	2142
bin	40136.986423427	1746
bin	56186.198193083	1204
bin	72235.409962739	857
bin	88284.621732395	515
bin	104333.83350205	429
bin	120383.04527171	332
bin	136432.25704136	530
bin	152481.46881102	141
bin	168530.68058067	6173
bin	184579.89235033	102
bin	200629.10411999	54
bin	216678.31588964	54
bin	232727.5276593	63
bin	248776.73942895	51
bin	264825.95119861	40
bin	280875.16296827	56
bin	296924.37473792	60
bin	312973.58650758	56
bin	329022.79827723	69
bin	345072.01004689	12
bin	361121.22181655	1302
scalar scenarioPRJP1.node[58].lo0.lo 	droppedPkBitError:count 	0
attr interpolationmode  none
attr source  dropPkBitError
attr title  "packets dropped/bit error, count"
scalar scenarioPRJP1.node[58].lo0.lo 	droppedPkBitError:sum(packetBytes) 	0
attr interpolationmode  none
attr source  dropPkBitError
attr title  "packets dropped/bit error, sum(packetBytes)"
scalar scenarioPRJP1.node[58].lo0.lo 	rcvdPkFromHL:count 	0
attr interpolationmode  none
attr source  packetReceivedFromUpper
attr title  "packets received from higher layer, count"
scalar scenarioPRJP1.node[58].lo0.lo 	rcvdPkFromHL:sum(packetBytes) 	0
attr interpolationmode  none
attr source  packetReceivedFromUpper
attr title  "packets received from higher layer, sum(packetBytes)"
scalar scenarioPRJP1.node[58].lo0.lo 	passedUpPk:count 	0
attr interpolationmode  none
attr source  packetSentToUpper
attr title  "packets passed to higher layer, count"
scalar scenarioPRJP1.node[58].lo0.lo 	passedUpPk:sum(packetBytes) 	0
attr interpolationmode  none
attr source  packetSentToUpper
attr title  "packets passed to higher layer, sum(packetBytes)"
scalar scenarioPRJP1.node[71].app 	"Total sent" 	2608
scalar scenarioPRJP1.node[71].app 	"Total received" 	155
scalar scenarioPRJP1.node[71].app 	"Total deleted" 	163
scalar scenarioPRJP1.node[71].app 	dropPk:count 	163
attr interpolationmode  none
attr source  dropPk
attr title  "packets dropped, count"
scalar scenarioPRJP1.node[71].app 	dropPk:sum(packetBytes) 	83456
attr interpolationmode  none
attr source  dropPk
attr title  "packets dropped, sum(packetBytes)"
scalar scenarioPRJP1.node[71].app 	outOfOrderPk:count 	62
attr interpolationmode  none
attr source  outOfOrderPk
attr title  "packets received out of order, count"
scalar scenarioPRJP1.node[71].app 	outOfOrderPk:sum(packetBytes) 	31744
attr interpolationmode  none
attr source  outOfOrderPk
attr title  "packets received out of order, sum(packetBytes)"
scalar scenarioPRJP1.node[71].app 	rcvdPk:count 	155
attr interpolationmode  none
attr source  rcvdPk
attr title  "packets received, count"
scalar scenarioPRJP1.node[71].app 	rcvdPk:sum(packetBytes) 	79360
attr interpolationmode  none
attr source  rcvdPk
attr title  "packets received, sum(packetBytes)"
statistic scenarioPRJP1.node[71].app 	endToEndDelay:histogram
field count 155
field mean 2.1159937434714
field stddev 4.7983221813336
field sum 327.97903023807
field sqrsum 4239.6815223788
field min 0.000945042981
field max 19.875180896733
attr interpolationmode  none
attr source  messageAge(rcvdPk)
attr title  "delay, histogram"
attr unit  s
bin	-INF	0
bin	-9.936172883895	0
bin	-8.6112238269782	0
bin	-7.2862747700614	0
bin	-5.9613257131446	0
bin	-4.6363766562278	0
bin	-3.311427599311	0
bin	-1.9864785423942	0
bin	-0.6615294854774	121
bin	0.6634195714394	3
bin	1.9883686283562	5
bin	3.313317685273	1
bin	4.6382667421898	1
bin	5.9632157991066	1
bin	7.2881648560234	3
bin	8.6131139129402	4
bin	9.938062969857	3
bin	11.263012026774	3
bin	12.587961083691	1
bin	13.912910140607	3
bin	15.237859197524	1
bin	16.562808254441	3
bin	17.887757311358	0
bin	19.212706368275	2
bin	20.537655425191	0
bin	21.862604482108	0
bin	23.187553539025	0
bin	24.512502595942	0
bin	25.837451652859	0
bin	27.162400709775	0
bin	28.487349766692	0
bin	29.812298823609	0
scalar scenarioPRJP1.node[71].app 	sentPk:count 	2608
attr interpolationmode  none
attr source  sentPk
attr title  "packets sent, count"
scalar scenarioPRJP1.node[71].app 	sentPk:sum(packetBytes) 	1335296
attr interpolationmode  none
attr source  sentPk
attr title  "packets sent, sum(packetBytes)"
scalar scenarioPRJP1.node[71].udp 	droppedPkBadChecksum:count 	0
attr interpolationmode  none
attr title  "packets dropped (checksum error), count"
scalar scenarioPRJP1.node[71].udp 	droppedPkWrongPort:count 	0
attr interpolationmode  none
attr title  "packets dropped (wrong port), count"
scalar scenarioPRJP1.node[71].udp 	passedUpPk:count 	380
attr interpolationmode  none
attr title  "packets passed up, count"
scalar scenarioPRJP1.node[71].udp 	rcvdPk:count 	380
attr interpolationmode  none
attr source  rcvdPk
attr title  "packets received, count"
scalar scenarioPRJP1.node[71].udp 	rcvdPk:sum(packetBytes) 	197600
attr interpolationmode  none
attr source  rcvdPk
attr title  "packets received, sum(packetBytes)"
scalar scenarioPRJP1.node[71].udp 	sentPk:count 	2608
attr interpolationmode  none
attr source  sentPk
attr title  "packets sent, count"
scalar scenarioPRJP1.node[71].udp 	sentPk:sum(packetBytes) 	1356160
attr interpolationmode  none
attr source  sentPk
attr title  "packets sent, sum(packetBytes)"
scalar scenarioPRJP1.node[71].networkLayer.arp 	failedARPResolution:count 	5
attr title  "ARP failed resolutions, count"
scalar scenarioPRJP1.node[71].networkLayer.arp 	completedARPResolution:count 	440
attr title  "ARP completed resolutions, count"
scalar scenarioPRJP1.node[71].networkLayer.arp 	initiatedARPResolution:count 	73
attr title  "ARP initiated resolutions, count"
scalar scenarioPRJP1.node[71].networkLayer.arp 	sentReply:count 	47
attr title  "ARP replies sent, count"
scalar scenarioPRJP1.node[71].networkLayer.arp 	sentReq:count 	96
attr title  "ARP request sent, count"
scalar scenarioPRJP1.node[71].mobility 	startTime 	7.4
scalar scenarioPRJP1.node[71].mobility 	totalTime 	942.5
scalar scenarioPRJP1.node[71].mobility 	stopTime 	950
scalar scenarioPRJP1.node[71].mobility 	minSpeed 	2.4755268449189e-13
scalar scenarioPRJP1.node[71].mobility 	maxSpeed 	19.488788759963
scalar scenarioPRJP1.node[71].mobility 	totalDistance 	9345.2972260184
scalar scenarioPRJP1.node[71].mobility 	totalCO2Emission 	2583.6264901993
scalar scenarioPRJP1.node[71].wlan[0].mgmt 	dataQueueLen:max 	17
attr interpolationmode  sample-hold
attr title  "data queue length, max"
scalar scenarioPRJP1.node[71].wlan[0].mgmt 	dataQueueLen:timeavg 	0
attr interpolationmode  sample-hold
attr title  "data queue length, timeavg"
scalar scenarioPRJP1.node[71].wlan[0].mgmt 	dropPkByQueue:count 	0
attr interpolationmode  none
attr source  dropPkByQueue
attr title  "packets dropped by queue, count"
scalar scenarioPRJP1.node[71].wlan[0].mgmt 	dropPkByQueue:sum(packetBytes) 	0
attr interpolationmode  none
attr source  dropPkByQueue
attr title  "packets dropped by queue, sum(packetBytes)"
scalar scenarioPRJP1.node[71].wlan[0].mac 	"number of received packets" 	4635
scalar scenarioPRJP1.node[71].wlan[0].mac 	"number of collisions" 	14945
scalar scenarioPRJP1.node[71].wlan[0].mac 	"number of internal collisions" 	0
scalar scenarioPRJP1.node[71].wlan[0].mac 	"number of retry for AC 0" 	5286
scalar scenarioPRJP1.node[71].wlan[0].mac 	"number of retry for AC 1" 	0
scalar scenarioPRJP1.node[71].wlan[0].mac 	"number of retry for AC 2" 	0
scalar scenarioPRJP1.node[71].wlan[0].mac 	"number of retry for AC 3" 	0
scalar scenarioPRJP1.node[71].wlan[0].mac 	"sent and received bits" 	11636544
scalar scenarioPRJP1.node[71].wlan[0].mac 	"sent packet within AC 0" 	1484
scalar scenarioPRJP1.node[71].wlan[0].mac 	"sent packet within AC 1" 	0
scalar scenarioPRJP1.node[71].wlan[0].mac 	"sent packet within AC 2" 	0
scalar scenarioPRJP1.node[71].wlan[0].mac 	"sent packet within AC 3" 	0
scalar scenarioPRJP1.node[71].wlan[0].mac 	"sent in TXOP " 	0
scalar scenarioPRJP1.node[71].wlan[0].mac 	"sentWithoutRetry AC 0" 	1447
scalar scenarioPRJP1.node[71].wlan[0].mac 	"sentWithoutRetry AC 1" 	0
scalar scenarioPRJP1.node[71].wlan[0].mac 	"sentWithoutRetry AC 2" 	0
scalar scenarioPRJP1.node[71].wlan[0].mac 	"sentWithoutRetry AC 3" 	0
scalar scenarioPRJP1.node[71].wlan[0].mac 	"numGivenUp AC 0" 	870
scalar scenarioPRJP1.node[71].wlan[0].mac 	"numGivenUp AC 1" 	0
scalar scenarioPRJP1.node[71].wlan[0].mac 	"numGivenUp AC 2" 	0
scalar scenarioPRJP1.node[71].wlan[0].mac 	"numGivenUp AC 3" 	0
scalar scenarioPRJP1.node[71].wlan[0].mac 	"numDropped AC 0" 	0
scalar scenarioPRJP1.node[71].wlan[0].mac 	"numDropped AC 1" 	0
scalar scenarioPRJP1.node[71].wlan[0].mac 	"numDropped AC 2" 	0
scalar scenarioPRJP1.node[71].wlan[0].mac 	"numDropped AC 3" 	0
scalar scenarioPRJP1.node[71].wlan[0].mac 	rcvdPkFromLL:count 	128164
attr interpolationmode  none
attr source  packetReceivedFromLower
attr title  "packets received from lower layer, count"
scalar scenarioPRJP1.node[71].wlan[0].mac 	rcvdPkFromLL:sum(packetBytes) 	22853552
attr interpolationmode  none
attr source  packetReceivedFromLower
attr title  "packets received from lower layer, sum(packetBytes)"
scalar scenarioPRJP1.node[71].wlan[0].mac 	sentDownPk:count 	25482
attr interpolationmode  none
attr source  packetSentToLower
attr title  "packets sent to lower layer, count"
scalar scenarioPRJP1.node[71].wlan[0].mac 	sentDownPk:sum(packetBytes) 	4310398
attr interpolationmode  none
attr source  packetSentToLower
attr title  "packets sent to lower layer, sum(packetBytes)"
scalar scenarioPRJP1.node[71].wlan[0].mac 	rcvdPkFromHL:count 	15561
attr interpolationmode  none
attr source  packetReceivedFromUpper
attr title  "packets received from higher layer, count"
scalar scenarioPRJP1.node[71].wlan[0].mac 	rcvdPkFromHL:sum(packetBytes) 	1849600
attr interpolationmode  none
attr source  packetReceivedFromUpper
attr title  "packets received from higher layer, sum(packetBytes)"
scalar scenarioPRJP1.node[71].wlan[0].mac 	passedUpPk:count 	62175
attr interpolationmode  none
attr source  packetSentToUpper
attr title  "packets passed to higher layer, count"
scalar scenarioPRJP1.node[71].wlan[0].mac 	passedUpPk:sum(packetBytes) 	5948464
attr interpolationmode  none
attr source  packetSentToUpper
attr title  "packets passed to higher layer, sum(packetBytes)"
statistic scenarioPRJP1.node[71].wlan[0].radio 	radioChannel:histogram
field count 1
field mean 3
field stddev -nan
field sum 3
field sqrsum 9
field min 3
field max 3
attr interpolationmode  sample-hold
attr source  radioChannelChanged
attr title  "Radio channel, histogram"
bin	-INF	0
bin	2	0
bin	3	1
bin	4	0
scalar scenarioPRJP1.node[71].wlan[0].radio 	transmissionState:count 	101928
attr interpolationmode  sample-hold
attr source  transmissionStateChanged
attr title  "Radio transmission state, count"
scalar scenarioPRJP1.node[71].wlan[0].radio 	receptionState:count 	309094
attr interpolationmode  sample-hold
attr source  receptionStateChanged
attr title  "Radio reception state, count"
scalar scenarioPRJP1.node[71].wlan[0].radio 	radioMode:count 	50966
attr interpolationmode  sample-hold
attr source  radioModeChanged
attr title  "Radio mode, count"
statistic scenarioPRJP1.node[71].wlan[0].radio 	symbolErrorRate:histogram
field count 0
field mean -nan
field stddev -nan
field sum 0
field sqrsum 0
field min -nan
field max -nan
attr source  symbolErrorRate
attr title  "Symbol error rate, histogram"
bin	-INF	0
bin	-0.5	0
bin	-0.46666666666667	0
bin	-0.43333333333333	0
bin	-0.4	0
bin	-0.36666666666667	0
bin	-0.33333333333333	0
bin	-0.3	0
bin	-0.26666666666667	0
bin	-0.23333333333333	0
bin	-0.2	0
bin	-0.16666666666667	0
bin	-0.13333333333333	0
bin	-0.1	0
bin	-0.066666666666667	0
bin	-0.033333333333333	0
bin	0	0
bin	0.033333333333333	0
bin	0.066666666666667	0
bin	0.1	0
bin	0.13333333333333	0
bin	0.16666666666667	0
bin	0.2	0
bin	0.23333333333333	0
bin	0.26666666666667	0
bin	0.3	0
bin	0.33333333333333	0
bin	0.36666666666667	0
bin	0.4	0
bin	0.43333333333333	0
bin	0.46666666666667	0
bin	0.5	0
statistic scenarioPRJP1.node[71].wlan[0].radio 	bitErrorRate:histogram
field count 0
field mean -nan
field stddev -nan
field sum 0
field sqrsum 0
field min -nan
field max -nan
attr source  bitErrorRate
attr title  "Bit error rate, histogram"
bin	-INF	0
bin	-0.5	0
bin	-0.46666666666667	0
bin	-0.43333333333333	0
bin	-0.4	0
bin	-0.36666666666667	0
bin	-0.33333333333333	0
bin	-0.3	0
bin	-0.26666666666667	0
bin	-0.23333333333333	0
bin	-0.2	0
bin	-0.16666666666667	0
bin	-0.13333333333333	0
bin	-0.1	0
bin	-0.066666666666667	0
bin	-0.033333333333333	0
bin	0	0
bin	0.033333333333333	0
bin	0.066666666666667	0
bin	0.1	0
bin	0.13333333333333	0
bin	0.16666666666667	0
bin	0.2	0
bin	0.23333333333333	0
bin	0.26666666666667	0
bin	0.3	0
bin	0.33333333333333	0
bin	0.36666666666667	0
bin	0.4	0
bin	0.43333333333333	0
bin	0.46666666666667	0
bin	0.5	0
statistic scenarioPRJP1.node[71].wlan[0].radio 	packetErrorRate:histogram
field count 128164
field mean 0.10083767484456
field stddev 0.29323271954745
field sum 12923.759758778
field sqrsum 12323.352269148
field min 0
field max 1
attr source  packetErrorRate
attr title  "Packet error rate, histogram"
bin	-INF	0
bin	-0.5	0
bin	-0.46666666666667	0
bin	-0.43333333333333	0
bin	-0.4	0
bin	-0.36666666666667	0
bin	-0.33333333333333	0
bin	-0.3	0
bin	-0.26666666666667	0
bin	-0.23333333333333	0
bin	-0.2	0
bin	-0.16666666666667	0
bin	-0.13333333333333	0
bin	-0.1	0
bin	-0.066666666666667	0
bin	-0.033333333333333	0
bin	0	112752
bin	0.033333333333333	632
bin	0.066666666666667	388
bin	0.1	272
bin	0.13333333333333	198
bin	0.16666666666667	193
bin	0.2	174
bin	0.23333333333333	143
bin	0.26666666666667	125
bin	0.3	110
bin	0.33333333333333	97
bin	0.36666666666667	104
bin	0.4	91
bin	0.43333333333333	90
bin	0.46666666666667	96
bin	0.5	12699
statistic scenarioPRJP1.node[71].wlan[0].radio 	minSNIR:histogram
field count 128164
field mean 5847.1690993698
field stddev 44547.596403432
field sum 749396580.45163
field sqrsum 2.5871982833003e+14
field min 0.0001713610674912
field max 4585522.1491594
attr source  minSNIR
attr title  "Min SNIR, histogram"
bin	-INF	0
bin	-11370.131824822	0
bin	-9852.2979812284	0
bin	-8334.4641376344	0
bin	-6816.6302940405	0
bin	-5298.7964504466	0
bin	-3780.9626068526	0
bin	-2263.1287632587	0
bin	-745.29491966479	101045
bin	772.53892392914	8424
bin	2290.3727675231	3773
bin	3808.206611117	2011
bin	5326.0404547109	1334
bin	6843.8742983049	1167
bin	8361.7081418988	979
bin	9879.5419854927	741
bin	11397.375829087	992
bin	12915.209672681	627
bin	14433.043516275	455
bin	15950.877359868	391
bin	17468.711203462	384
bin	18986.545047056	540
bin	20504.37889065	238
bin	22022.212734244	539
bin	23540.046577838	488
bin	25057.880421432	168
bin	26575.714265026	103
bin	28093.54810862	106
bin	29611.381952214	97
bin	31129.215795808	70
bin	32647.049639402	74
bin	34164.883482996	3418
scalar scenarioPRJP1.node[71].lo0.lo 	droppedPkBitError:count 	0
attr interpolationmode  none
attr source  dropPkBitError
attr title  "packets dropped/bit error, count"
scalar scenarioPRJP1.node[71].lo0.lo 	droppedPkBitError:sum(packetBytes) 	0
attr interpolationmode  none
attr source  dropPkBitError
attr title  "packets dropped/bit error, sum(packetBytes)"
scalar scenarioPRJP1.node[71].lo0.lo 	rcvdPkFromHL:count 	0
attr interpolationmode  none
attr source  packetReceivedFromUpper
attr title  "packets received from higher layer, count"
scalar scenarioPRJP1.node[71].lo0.lo 	rcvdPkFromHL:sum(packetBytes) 	0
attr interpolationmode  none
attr source  packetReceivedFromUpper
attr title  "packets received from higher layer, sum(packetBytes)"
scalar scenarioPRJP1.node[71].lo0.lo 	passedUpPk:count 	0
attr interpolationmode  none
attr source  packetSentToUpper
attr title  "packets passed to higher layer, count"
scalar scenarioPRJP1.node[71].lo0.lo 	passedUpPk:sum(packetBytes) 	0
attr interpolationmode  none
attr source  packetSentToUpper
attr title  "packets passed to higher layer, sum(packetBytes)"
