version 2
run AODVRouting-TRG-75n-22-20150730-22:54:31-11419
attr configname AODVRouting-TRG-75n
attr datetime 20150730-22:54:31
attr experiment AODVRouting-TRG-75n
attr inifile omnetpp.ini
attr iterationvars ""
attr iterationvars2 $repetition=22
attr measurement ""
attr network Prj_Part1_propag.scenarioPRJP1
attr processid 11419
attr repetition 22
attr replication #22
attr resultdir results
attr runnumber 22
attr seedset 22

scalar scenarioPRJP1.radioMedium.propagation 	"Arrival computation count" 	163415532
scalar scenarioPRJP1.radioMedium 	"transmission count" 	2208318
scalar scenarioPRJP1.radioMedium 	"radio frame send count" 	163415532
scalar scenarioPRJP1.radioMedium 	"reception computation count" 	162701725
scalar scenarioPRJP1.radioMedium 	"interference computation count" 	463660758
scalar scenarioPRJP1.radioMedium 	"reception decision computation count" 	10887052
scalar scenarioPRJP1.radioMedium 	"listening decision computation count" 	291665258
scalar scenarioPRJP1.radioMedium 	"reception cache hit" 	82.974002132568
attr unit  %
scalar scenarioPRJP1.radioMedium 	"interference cache hit" 	50
attr unit  %
scalar scenarioPRJP1.radioMedium 	"noise cache hit" 	0
attr unit  %
scalar scenarioPRJP1.radioMedium 	"snir cache hit" 	0
attr unit  %
scalar scenarioPRJP1.radioMedium 	"reception decision cache hit" 	0
attr unit  %
scalar scenarioPRJP1.node[0].app 	"Total sent" 	2592
scalar scenarioPRJP1.node[0].app 	"Total received" 	162
scalar scenarioPRJP1.node[0].app 	"Total deleted" 	101
scalar scenarioPRJP1.node[0].app 	dropPk:count 	101
attr interpolationmode  none
attr source  dropPk
attr title  "packets dropped, count"
scalar scenarioPRJP1.node[0].app 	dropPk:sum(packetBytes) 	51712
attr interpolationmode  none
attr source  dropPk
attr title  "packets dropped, sum(packetBytes)"
scalar scenarioPRJP1.node[0].app 	outOfOrderPk:count 	37
attr interpolationmode  none
attr source  outOfOrderPk
attr title  "packets received out of order, count"
scalar scenarioPRJP1.node[0].app 	outOfOrderPk:sum(packetBytes) 	18944
attr interpolationmode  none
attr source  outOfOrderPk
attr title  "packets received out of order, sum(packetBytes)"
scalar scenarioPRJP1.node[0].app 	rcvdPk:count 	162
attr interpolationmode  none
attr source  rcvdPk
attr title  "packets received, count"
scalar scenarioPRJP1.node[0].app 	rcvdPk:sum(packetBytes) 	82944
attr interpolationmode  none
attr source  rcvdPk
attr title  "packets received, sum(packetBytes)"
statistic scenarioPRJP1.node[0].app 	endToEndDelay:histogram
field count 162
field mean 1.2843612516819
field stddev 3.8206915154211
field sum 208.06652277247
field sqrsum 2617.4596482389
field min 0.000945049157
field max 19.308702762738
attr interpolationmode  none
attr source  messageAge(rcvdPk)
attr title  "delay, histogram"
attr unit  s
bin	-INF	0
bin	-9.6529338076335	0
bin	-8.3657499600614	0
bin	-7.0785661124894	0
bin	-5.7913822649173	0
bin	-4.5041984173452	0
bin	-3.2170145697732	0
bin	-1.9298307222011	0
bin	-0.64264687462903	137
bin	0.64453697294303	4
bin	1.9317208205151	3
bin	3.2189046680872	3
bin	4.5060885156592	3
bin	5.7932723632313	1
bin	7.0804562108034	0
bin	8.3676400583754	0
bin	9.6548239059475	3
bin	10.94200775352	0
bin	12.229191601092	1
bin	13.516375448664	2
bin	14.803559296236	2
bin	16.090743143808	1
bin	17.37792699138	0
bin	18.665110838952	2
bin	19.952294686524	0
bin	21.239478534096	0
bin	22.526662381668	0
bin	23.81384622924	0
bin	25.101030076812	0
bin	26.388213924384	0
bin	27.675397771956	0
bin	28.962581619528	0
scalar scenarioPRJP1.node[0].app 	sentPk:count 	2592
attr interpolationmode  none
attr source  sentPk
attr title  "packets sent, count"
scalar scenarioPRJP1.node[0].app 	sentPk:sum(packetBytes) 	1327104
attr interpolationmode  none
attr source  sentPk
attr title  "packets sent, sum(packetBytes)"
scalar scenarioPRJP1.node[0].udp 	droppedPkBadChecksum:count 	0
attr interpolationmode  none
attr title  "packets dropped (checksum error), count"
scalar scenarioPRJP1.node[0].udp 	droppedPkWrongPort:count 	0
attr interpolationmode  none
attr title  "packets dropped (wrong port), count"
scalar scenarioPRJP1.node[0].udp 	passedUpPk:count 	300
attr interpolationmode  none
attr title  "packets passed up, count"
scalar scenarioPRJP1.node[0].udp 	rcvdPk:count 	300
attr interpolationmode  none
attr source  rcvdPk
attr title  "packets received, count"
scalar scenarioPRJP1.node[0].udp 	rcvdPk:sum(packetBytes) 	156000
attr interpolationmode  none
attr source  rcvdPk
attr title  "packets received, sum(packetBytes)"
scalar scenarioPRJP1.node[0].udp 	sentPk:count 	2592
attr interpolationmode  none
attr source  sentPk
attr title  "packets sent, count"
scalar scenarioPRJP1.node[0].udp 	sentPk:sum(packetBytes) 	1347840
attr interpolationmode  none
attr source  sentPk
attr title  "packets sent, sum(packetBytes)"
scalar scenarioPRJP1.node[0].networkLayer.arp 	failedARPResolution:count 	7
attr title  "ARP failed resolutions, count"
scalar scenarioPRJP1.node[0].networkLayer.arp 	completedARPResolution:count 	379
attr title  "ARP completed resolutions, count"
scalar scenarioPRJP1.node[0].networkLayer.arp 	initiatedARPResolution:count 	66
attr title  "ARP initiated resolutions, count"
scalar scenarioPRJP1.node[0].networkLayer.arp 	sentReply:count 	38
attr title  "ARP replies sent, count"
scalar scenarioPRJP1.node[0].networkLayer.arp 	sentReq:count 	89
attr title  "ARP request sent, count"
scalar scenarioPRJP1.node[0].mobility 	startTime 	0.1
scalar scenarioPRJP1.node[0].mobility 	totalTime 	949.8
scalar scenarioPRJP1.node[0].mobility 	stopTime 	950
scalar scenarioPRJP1.node[0].mobility 	minSpeed 	2.4756164673149e-13
scalar scenarioPRJP1.node[0].mobility 	maxSpeed 	17.692862605504
scalar scenarioPRJP1.node[0].mobility 	totalDistance 	8188.0933579361
scalar scenarioPRJP1.node[0].mobility 	totalCO2Emission 	2432.3832185839
scalar scenarioPRJP1.node[0].wlan[0].mgmt 	dataQueueLen:max 	29
attr interpolationmode  sample-hold
attr title  "data queue length, max"
scalar scenarioPRJP1.node[0].wlan[0].mgmt 	dataQueueLen:timeavg 	0
attr interpolationmode  sample-hold
attr title  "data queue length, timeavg"
scalar scenarioPRJP1.node[0].wlan[0].mgmt 	dropPkByQueue:count 	0
attr interpolationmode  none
attr source  dropPkByQueue
attr title  "packets dropped by queue, count"
scalar scenarioPRJP1.node[0].wlan[0].mgmt 	dropPkByQueue:sum(packetBytes) 	0
attr interpolationmode  none
attr source  dropPkByQueue
attr title  "packets dropped by queue, sum(packetBytes)"
scalar scenarioPRJP1.node[0].wlan[0].mac 	"number of received packets" 	4352
scalar scenarioPRJP1.node[0].wlan[0].mac 	"number of collisions" 	12040
scalar scenarioPRJP1.node[0].wlan[0].mac 	"number of internal collisions" 	0
scalar scenarioPRJP1.node[0].wlan[0].mac 	"number of retry for AC 0" 	5734
scalar scenarioPRJP1.node[0].wlan[0].mac 	"number of retry for AC 1" 	0
scalar scenarioPRJP1.node[0].wlan[0].mac 	"number of retry for AC 2" 	0
scalar scenarioPRJP1.node[0].wlan[0].mac 	"number of retry for AC 3" 	0
scalar scenarioPRJP1.node[0].wlan[0].mac 	"sent and received bits" 	13140864
scalar scenarioPRJP1.node[0].wlan[0].mac 	"sent packet within AC 0" 	1066
scalar scenarioPRJP1.node[0].wlan[0].mac 	"sent packet within AC 1" 	0
scalar scenarioPRJP1.node[0].wlan[0].mac 	"sent packet within AC 2" 	0
scalar scenarioPRJP1.node[0].wlan[0].mac 	"sent packet within AC 3" 	0
scalar scenarioPRJP1.node[0].wlan[0].mac 	"sent in TXOP " 	0
scalar scenarioPRJP1.node[0].wlan[0].mac 	"sentWithoutRetry AC 0" 	947
scalar scenarioPRJP1.node[0].wlan[0].mac 	"sentWithoutRetry AC 1" 	0
scalar scenarioPRJP1.node[0].wlan[0].mac 	"sentWithoutRetry AC 2" 	0
scalar scenarioPRJP1.node[0].wlan[0].mac 	"sentWithoutRetry AC 3" 	0
scalar scenarioPRJP1.node[0].wlan[0].mac 	"numGivenUp AC 0" 	920
scalar scenarioPRJP1.node[0].wlan[0].mac 	"numGivenUp AC 1" 	0
scalar scenarioPRJP1.node[0].wlan[0].mac 	"numGivenUp AC 2" 	0
scalar scenarioPRJP1.node[0].wlan[0].mac 	"numGivenUp AC 3" 	0
scalar scenarioPRJP1.node[0].wlan[0].mac 	"numDropped AC 0" 	0
scalar scenarioPRJP1.node[0].wlan[0].mac 	"numDropped AC 1" 	0
scalar scenarioPRJP1.node[0].wlan[0].mac 	"numDropped AC 2" 	0
scalar scenarioPRJP1.node[0].wlan[0].mac 	"numDropped AC 3" 	0
scalar scenarioPRJP1.node[0].wlan[0].mac 	rcvdPkFromLL:count 	125121
attr interpolationmode  none
attr source  packetReceivedFromLower
attr title  "packets received from lower layer, count"
scalar scenarioPRJP1.node[0].wlan[0].mac 	rcvdPkFromLL:sum(packetBytes) 	19671836
attr interpolationmode  none
attr source  packetReceivedFromLower
attr title  "packets received from lower layer, sum(packetBytes)"
scalar scenarioPRJP1.node[0].wlan[0].mac 	sentDownPk:count 	26151
attr interpolationmode  none
attr source  packetSentToLower
attr title  "packets sent to lower layer, count"
scalar scenarioPRJP1.node[0].wlan[0].mac 	sentDownPk:sum(packetBytes) 	4749972
attr interpolationmode  none
attr source  packetSentToLower
attr title  "packets sent to lower layer, sum(packetBytes)"
scalar scenarioPRJP1.node[0].wlan[0].mac 	rcvdPkFromHL:count 	16065
attr interpolationmode  none
attr source  packetReceivedFromUpper
attr title  "packets received from higher layer, count"
scalar scenarioPRJP1.node[0].wlan[0].mac 	rcvdPkFromHL:sum(packetBytes) 	2061188
attr interpolationmode  none
attr source  packetReceivedFromUpper
attr title  "packets received from higher layer, sum(packetBytes)"
scalar scenarioPRJP1.node[0].wlan[0].mac 	passedUpPk:count 	54848
attr interpolationmode  none
attr source  packetSentToUpper
attr title  "packets passed to higher layer, count"
scalar scenarioPRJP1.node[0].wlan[0].mac 	passedUpPk:sum(packetBytes) 	5403704
attr interpolationmode  none
attr source  packetSentToUpper
attr title  "packets passed to higher layer, sum(packetBytes)"
statistic scenarioPRJP1.node[0].wlan[0].radio 	radioChannel:histogram
field count 1
field mean 3
field stddev nan
field sum 3
field sqrsum 9
field min 3
field max 3
attr interpolationmode  sample-hold
attr source  radioChannelChanged
attr title  "Radio channel, histogram"
bin	-INF	0
bin	2	0
bin	3	1
bin	4	0
scalar scenarioPRJP1.node[0].wlan[0].radio 	transmissionState:count 	104604
attr interpolationmode  sample-hold
attr source  transmissionStateChanged
attr title  "Radio transmission state, count"
scalar scenarioPRJP1.node[0].wlan[0].radio 	receptionState:count 	303782
attr interpolationmode  sample-hold
attr source  receptionStateChanged
attr title  "Radio reception state, count"
scalar scenarioPRJP1.node[0].wlan[0].radio 	radioMode:count 	52304
attr interpolationmode  sample-hold
attr source  radioModeChanged
attr title  "Radio mode, count"
statistic scenarioPRJP1.node[0].wlan[0].radio 	symbolErrorRate:histogram
field count 0
field mean nan
field stddev nan
field sum 0
field sqrsum 0
field min nan
field max nan
attr source  symbolErrorRate
attr title  "Symbol error rate, histogram"
bin	-INF	0
bin	-0.5	0
bin	-0.46666666666667	0
bin	-0.43333333333333	0
bin	-0.4	0
bin	-0.36666666666667	0
bin	-0.33333333333333	0
bin	-0.3	0
bin	-0.26666666666667	0
bin	-0.23333333333333	0
bin	-0.2	0
bin	-0.16666666666667	0
bin	-0.13333333333333	0
bin	-0.1	0
bin	-0.066666666666667	0
bin	-0.033333333333333	0
bin	0	0
bin	0.033333333333333	0
bin	0.066666666666667	0
bin	0.1	0
bin	0.13333333333333	0
bin	0.16666666666667	0
bin	0.2	0
bin	0.23333333333333	0
bin	0.26666666666667	0
bin	0.3	0
bin	0.33333333333333	0
bin	0.36666666666667	0
bin	0.4	0
bin	0.43333333333333	0
bin	0.46666666666667	0
bin	0.5	0
statistic scenarioPRJP1.node[0].wlan[0].radio 	bitErrorRate:histogram
field count 0
field mean nan
field stddev nan
field sum 0
field sqrsum 0
field min nan
field max nan
attr source  bitErrorRate
attr title  "Bit error rate, histogram"
bin	-INF	0
bin	-0.5	0
bin	-0.46666666666667	0
bin	-0.43333333333333	0
bin	-0.4	0
bin	-0.36666666666667	0
bin	-0.33333333333333	0
bin	-0.3	0
bin	-0.26666666666667	0
bin	-0.23333333333333	0
bin	-0.2	0
bin	-0.16666666666667	0
bin	-0.13333333333333	0
bin	-0.1	0
bin	-0.066666666666667	0
bin	-0.033333333333333	0
bin	0	0
bin	0.033333333333333	0
bin	0.066666666666667	0
bin	0.1	0
bin	0.13333333333333	0
bin	0.16666666666667	0
bin	0.2	0
bin	0.23333333333333	0
bin	0.26666666666667	0
bin	0.3	0
bin	0.33333333333333	0
bin	0.36666666666667	0
bin	0.4	0
bin	0.43333333333333	0
bin	0.46666666666667	0
bin	0.5	0
statistic scenarioPRJP1.node[0].wlan[0].radio 	packetErrorRate:histogram
field count 125121
field mean 0.082323218843615
field stddev 0.26698984649702
field sum 10300.363464932
field sqrsum 9766.9603716311
field min 0
field max 1
attr source  packetErrorRate
attr title  "Packet error rate, histogram"
bin	-INF	0
bin	-0.066959089430485	0
bin	-0.058031210839754	0
bin	-0.049103332249023	0
bin	-0.040175453658291	0
bin	-0.03124757506756	0
bin	-0.022319696476828	0
bin	-0.013391817886097	0
bin	-0.0044639392953657	110746
bin	0.0044639392953657	974
bin	0.013391817886097	447
bin	0.022319696476828	326
bin	0.03124757506756	252
bin	0.040175453658291	177
bin	0.049103332249023	151
bin	0.058031210839754	127
bin	0.066959089430485	94
bin	0.075886968021217	92
bin	0.084814846611948	78
bin	0.09374272520268	95
bin	0.10267060379341	77
bin	0.11159848238414	62
bin	0.12052636097487	53
bin	0.12945423956561	69
bin	0.13838211815634	50
bin	0.14730999674707	48
bin	0.1562378753378	52
bin	0.16516575392853	45
bin	0.17409363251926	47
bin	0.18302151110999	48
bin	0.19194938970072	37
bin	0.20087726829146	10974
statistic scenarioPRJP1.node[0].wlan[0].radio 	minSNIR:histogram
field count 125121
field mean 9541.1036943807
field stddev 65336.019536277
field sum 1193792435.3446
field sqrsum 5.4550178397466e+14
field min 0.00017138637902784
field max 753239.71923443
attr source  minSNIR
attr title  "Min SNIR, histogram"
bin	-INF	0
bin	-344.49465654028	0
bin	-298.25158726696	0
bin	-252.00851799365	0
bin	-205.76544872034	0
bin	-159.52237944702	0
bin	-113.27931017371	0
bin	-67.036240900394	0
bin	-20.793171627079	47629
bin	25.449897646235	14864
bin	71.692966919549	5748
bin	117.93603619286	8021
bin	164.17910546618	5086
bin	210.42217473949	3740
bin	256.66524401281	2688
bin	302.90831328612	2346
bin	349.15138255943	1858
bin	395.39445183275	1669
bin	441.63752110606	1529
bin	487.88059037938	1237
bin	534.12365965269	955
bin	580.36672892601	844
bin	626.60979819932	760
bin	672.85286747263	673
bin	719.09593674595	559
bin	765.33900601926	576
bin	811.58207529258	503
bin	857.82514456589	468
bin	904.06821383921	473
bin	950.31128311252	432
bin	996.55435238583	389
bin	1042.7974216591	22074
scalar scenarioPRJP1.node[0].lo0.lo 	droppedPkBitError:count 	0
attr interpolationmode  none
attr source  dropPkBitError
attr title  "packets dropped/bit error, count"
scalar scenarioPRJP1.node[0].lo0.lo 	droppedPkBitError:sum(packetBytes) 	0
attr interpolationmode  none
attr source  dropPkBitError
attr title  "packets dropped/bit error, sum(packetBytes)"
scalar scenarioPRJP1.node[0].lo0.lo 	rcvdPkFromHL:count 	3
attr interpolationmode  none
attr source  packetReceivedFromUpper
attr title  "packets received from higher layer, count"
scalar scenarioPRJP1.node[0].lo0.lo 	rcvdPkFromHL:sum(packetBytes) 	168
attr interpolationmode  none
attr source  packetReceivedFromUpper
attr title  "packets received from higher layer, sum(packetBytes)"
scalar scenarioPRJP1.node[0].lo0.lo 	passedUpPk:count 	3
attr interpolationmode  none
attr source  packetSentToUpper
attr title  "packets passed to higher layer, count"
scalar scenarioPRJP1.node[0].lo0.lo 	passedUpPk:sum(packetBytes) 	168
attr interpolationmode  none
attr source  packetSentToUpper
attr title  "packets passed to higher layer, sum(packetBytes)"
scalar scenarioPRJP1.node[20].app 	"Total sent" 	2614
scalar scenarioPRJP1.node[20].app 	"Total received" 	171
scalar scenarioPRJP1.node[20].app 	"Total deleted" 	117
scalar scenarioPRJP1.node[20].app 	dropPk:count 	117
attr interpolationmode  none
attr source  dropPk
attr title  "packets dropped, count"
scalar scenarioPRJP1.node[20].app 	dropPk:sum(packetBytes) 	59904
attr interpolationmode  none
attr source  dropPk
attr title  "packets dropped, sum(packetBytes)"
scalar scenarioPRJP1.node[20].app 	outOfOrderPk:count 	10
attr interpolationmode  none
attr source  outOfOrderPk
attr title  "packets received out of order, count"
scalar scenarioPRJP1.node[20].app 	outOfOrderPk:sum(packetBytes) 	5120
attr interpolationmode  none
attr source  outOfOrderPk
attr title  "packets received out of order, sum(packetBytes)"
scalar scenarioPRJP1.node[20].app 	rcvdPk:count 	171
attr interpolationmode  none
attr source  rcvdPk
attr title  "packets received, count"
scalar scenarioPRJP1.node[20].app 	rcvdPk:sum(packetBytes) 	87552
attr interpolationmode  none
attr source  rcvdPk
attr title  "packets received, sum(packetBytes)"
statistic scenarioPRJP1.node[20].app 	endToEndDelay:histogram
field count 171
field mean 0.90390471780985
field stddev 2.7790304779761
field sum 154.56770674549
field sqrsum 1452.6262469267
field min 0.000945068821
field max 16.849217931422
attr interpolationmode  none
attr source  messageAge(rcvdPk)
attr title  "delay, histogram"
attr unit  s
bin	-INF	0
bin	-6.675934586988	0
bin	-5.7856839662135	0
bin	-4.8954333454389	0
bin	-4.0051827246644	0
bin	-3.1149321038899	0
bin	-2.2246814831153	0
bin	-1.3344308623408	0
bin	-0.44418024156627	147
bin	0.44607037920827	4
bin	1.3363209999828	3
bin	2.2265716207573	0
bin	3.1168222415319	1
bin	4.0070728623064	4
bin	4.8973234830809	1
bin	5.7875741038555	0
bin	6.67782472463	0
bin	7.5680753454045	1
bin	8.4583259661791	4
bin	9.3485765869536	1
bin	10.238827207728	1
bin	11.129077828503	1
bin	12.019328449277	1
bin	12.909579070052	1
bin	13.799829690826	0
bin	14.690080311601	0
bin	15.580330932375	0
bin	16.47058155315	1
bin	17.360832173924	0
bin	18.251082794699	0
bin	19.141333415473	0
bin	20.031584036248	0
scalar scenarioPRJP1.node[20].app 	sentPk:count 	2614
attr interpolationmode  none
attr source  sentPk
attr title  "packets sent, count"
scalar scenarioPRJP1.node[20].app 	sentPk:sum(packetBytes) 	1338368
attr interpolationmode  none
attr source  sentPk
attr title  "packets sent, sum(packetBytes)"
scalar scenarioPRJP1.node[20].udp 	droppedPkBadChecksum:count 	0
attr interpolationmode  none
attr title  "packets dropped (checksum error), count"
scalar scenarioPRJP1.node[20].udp 	droppedPkWrongPort:count 	0
attr interpolationmode  none
attr title  "packets dropped (wrong port), count"
scalar scenarioPRJP1.node[20].udp 	passedUpPk:count 	298
attr interpolationmode  none
attr title  "packets passed up, count"
scalar scenarioPRJP1.node[20].udp 	rcvdPk:count 	298
attr interpolationmode  none
attr source  rcvdPk
attr title  "packets received, count"
scalar scenarioPRJP1.node[20].udp 	rcvdPk:sum(packetBytes) 	154960
attr interpolationmode  none
attr source  rcvdPk
attr title  "packets received, sum(packetBytes)"
scalar scenarioPRJP1.node[20].udp 	sentPk:count 	2614
attr interpolationmode  none
attr source  sentPk
attr title  "packets sent, count"
scalar scenarioPRJP1.node[20].udp 	sentPk:sum(packetBytes) 	1359280
attr interpolationmode  none
attr source  sentPk
attr title  "packets sent, sum(packetBytes)"
scalar scenarioPRJP1.node[20].networkLayer.arp 	failedARPResolution:count 	9
attr title  "ARP failed resolutions, count"
scalar scenarioPRJP1.node[20].networkLayer.arp 	completedARPResolution:count 	394
attr title  "ARP completed resolutions, count"
scalar scenarioPRJP1.node[20].networkLayer.arp 	initiatedARPResolution:count 	72
attr title  "ARP initiated resolutions, count"
scalar scenarioPRJP1.node[20].networkLayer.arp 	sentReply:count 	46
attr title  "ARP replies sent, count"
scalar scenarioPRJP1.node[20].networkLayer.arp 	sentReq:count 	102
attr title  "ARP request sent, count"
scalar scenarioPRJP1.node[20].mobility 	startTime 	2.5
scalar scenarioPRJP1.node[20].mobility 	totalTime 	947.4
scalar scenarioPRJP1.node[20].mobility 	stopTime 	950
scalar scenarioPRJP1.node[20].mobility 	minSpeed 	2.4754547196879e-13
scalar scenarioPRJP1.node[20].mobility 	maxSpeed 	20.969602911426
scalar scenarioPRJP1.node[20].mobility 	totalDistance 	11676.863840269
scalar scenarioPRJP1.node[20].mobility 	totalCO2Emission 	3071.7087066604
scalar scenarioPRJP1.node[20].wlan[0].mgmt 	dataQueueLen:max 	14
attr interpolationmode  sample-hold
attr title  "data queue length, max"
scalar scenarioPRJP1.node[20].wlan[0].mgmt 	dataQueueLen:timeavg 	0
attr interpolationmode  sample-hold
attr title  "data queue length, timeavg"
scalar scenarioPRJP1.node[20].wlan[0].mgmt 	dropPkByQueue:count 	0
attr interpolationmode  none
attr source  dropPkByQueue
attr title  "packets dropped by queue, count"
scalar scenarioPRJP1.node[20].wlan[0].mgmt 	dropPkByQueue:sum(packetBytes) 	0
attr interpolationmode  none
attr source  dropPkByQueue
attr title  "packets dropped by queue, sum(packetBytes)"
scalar scenarioPRJP1.node[20].wlan[0].mac 	"number of received packets" 	6532
scalar scenarioPRJP1.node[20].wlan[0].mac 	"number of collisions" 	11170
scalar scenarioPRJP1.node[20].wlan[0].mac 	"number of internal collisions" 	0
scalar scenarioPRJP1.node[20].wlan[0].mac 	"number of retry for AC 0" 	4699
scalar scenarioPRJP1.node[20].wlan[0].mac 	"number of retry for AC 1" 	0
scalar scenarioPRJP1.node[20].wlan[0].mac 	"number of retry for AC 2" 	0
scalar scenarioPRJP1.node[20].wlan[0].mac 	"number of retry for AC 3" 	0
scalar scenarioPRJP1.node[20].wlan[0].mac 	"sent and received bits" 	13292416
scalar scenarioPRJP1.node[20].wlan[0].mac 	"sent packet within AC 0" 	3250
scalar scenarioPRJP1.node[20].wlan[0].mac 	"sent packet within AC 1" 	1
scalar scenarioPRJP1.node[20].wlan[0].mac 	"sent packet within AC 2" 	0
scalar scenarioPRJP1.node[20].wlan[0].mac 	"sent packet within AC 3" 	0
scalar scenarioPRJP1.node[20].wlan[0].mac 	"sent in TXOP " 	0
scalar scenarioPRJP1.node[20].wlan[0].mac 	"sentWithoutRetry AC 0" 	3186
scalar scenarioPRJP1.node[20].wlan[0].mac 	"sentWithoutRetry AC 1" 	1
scalar scenarioPRJP1.node[20].wlan[0].mac 	"sentWithoutRetry AC 2" 	0
scalar scenarioPRJP1.node[20].wlan[0].mac 	"sentWithoutRetry AC 3" 	0
scalar scenarioPRJP1.node[20].wlan[0].mac 	"numGivenUp AC 0" 	767
scalar scenarioPRJP1.node[20].wlan[0].mac 	"numGivenUp AC 1" 	0
scalar scenarioPRJP1.node[20].wlan[0].mac 	"numGivenUp AC 2" 	0
scalar scenarioPRJP1.node[20].wlan[0].mac 	"numGivenUp AC 3" 	0
scalar scenarioPRJP1.node[20].wlan[0].mac 	"numDropped AC 0" 	0
scalar scenarioPRJP1.node[20].wlan[0].mac 	"numDropped AC 1" 	0
scalar scenarioPRJP1.node[20].wlan[0].mac 	"numDropped AC 2" 	0
scalar scenarioPRJP1.node[20].wlan[0].mac 	"numDropped AC 3" 	0
scalar scenarioPRJP1.node[20].wlan[0].mac 	rcvdPkFromLL:count 	132032
attr interpolationmode  none
attr source  packetReceivedFromLower
attr title  "packets received from lower layer, count"
scalar scenarioPRJP1.node[20].wlan[0].mac 	rcvdPkFromLL:sum(packetBytes) 	21313032
attr interpolationmode  none
attr source  packetReceivedFromLower
attr title  "packets received from lower layer, sum(packetBytes)"
scalar scenarioPRJP1.node[20].wlan[0].mac 	sentDownPk:count 	28341
attr interpolationmode  none
attr source  packetSentToLower
attr title  "packets sent to lower layer, count"
scalar scenarioPRJP1.node[20].wlan[0].mac 	sentDownPk:sum(packetBytes) 	4169764
attr interpolationmode  none
attr source  packetSentToLower
attr title  "packets sent to lower layer, sum(packetBytes)"
scalar scenarioPRJP1.node[20].wlan[0].mac 	rcvdPkFromHL:count 	17110
attr interpolationmode  none
attr source  packetReceivedFromUpper
attr title  "packets received from higher layer, count"
scalar scenarioPRJP1.node[20].wlan[0].mac 	rcvdPkFromHL:sum(packetBytes) 	1999736
attr interpolationmode  none
attr source  packetReceivedFromUpper
attr title  "packets received from higher layer, sum(packetBytes)"
scalar scenarioPRJP1.node[20].wlan[0].mac 	passedUpPk:count 	57277
attr interpolationmode  none
attr source  packetSentToUpper
attr title  "packets passed to higher layer, count"
scalar scenarioPRJP1.node[20].wlan[0].mac 	passedUpPk:sum(packetBytes) 	5502424
attr interpolationmode  none
attr source  packetSentToUpper
attr title  "packets passed to higher layer, sum(packetBytes)"
statistic scenarioPRJP1.node[20].wlan[0].radio 	radioChannel:histogram
field count 1
field mean 3
field stddev nan
field sum 3
field sqrsum 9
field min 3
field max 3
attr interpolationmode  sample-hold
attr source  radioChannelChanged
attr title  "Radio channel, histogram"
bin	-INF	0
bin	2	0
bin	3	1
bin	4	0
scalar scenarioPRJP1.node[20].wlan[0].radio 	transmissionState:count 	113364
attr interpolationmode  sample-hold
attr source  transmissionStateChanged
attr title  "Radio transmission state, count"
scalar scenarioPRJP1.node[20].wlan[0].radio 	receptionState:count 	322147
attr interpolationmode  sample-hold
attr source  receptionStateChanged
attr title  "Radio reception state, count"
scalar scenarioPRJP1.node[20].wlan[0].radio 	radioMode:count 	56684
attr interpolationmode  sample-hold
attr source  radioModeChanged
attr title  "Radio mode, count"
statistic scenarioPRJP1.node[20].wlan[0].radio 	symbolErrorRate:histogram
field count 0
field mean nan
field stddev nan
field sum 0
field sqrsum 0
field min nan
field max nan
attr source  symbolErrorRate
attr title  "Symbol error rate, histogram"
bin	-INF	0
bin	-0.5	0
bin	-0.46666666666667	0
bin	-0.43333333333333	0
bin	-0.4	0
bin	-0.36666666666667	0
bin	-0.33333333333333	0
bin	-0.3	0
bin	-0.26666666666667	0
bin	-0.23333333333333	0
bin	-0.2	0
bin	-0.16666666666667	0
bin	-0.13333333333333	0
bin	-0.1	0
bin	-0.066666666666667	0
bin	-0.033333333333333	0
bin	0	0
bin	0.033333333333333	0
bin	0.066666666666667	0
bin	0.1	0
bin	0.13333333333333	0
bin	0.16666666666667	0
bin	0.2	0
bin	0.23333333333333	0
bin	0.26666666666667	0
bin	0.3	0
bin	0.33333333333333	0
bin	0.36666666666667	0
bin	0.4	0
bin	0.43333333333333	0
bin	0.46666666666667	0
bin	0.5	0
statistic scenarioPRJP1.node[20].wlan[0].radio 	bitErrorRate:histogram
field count 0
field mean nan
field stddev nan
field sum 0
field sqrsum 0
field min nan
field max nan
attr source  bitErrorRate
attr title  "Bit error rate, histogram"
bin	-INF	0
bin	-0.5	0
bin	-0.46666666666667	0
bin	-0.43333333333333	0
bin	-0.4	0
bin	-0.36666666666667	0
bin	-0.33333333333333	0
bin	-0.3	0
bin	-0.26666666666667	0
bin	-0.23333333333333	0
bin	-0.2	0
bin	-0.16666666666667	0
bin	-0.13333333333333	0
bin	-0.1	0
bin	-0.066666666666667	0
bin	-0.033333333333333	0
bin	0	0
bin	0.033333333333333	0
bin	0.066666666666667	0
bin	0.1	0
bin	0.13333333333333	0
bin	0.16666666666667	0
bin	0.2	0
bin	0.23333333333333	0
bin	0.26666666666667	0
bin	0.3	0
bin	0.33333333333333	0
bin	0.36666666666667	0
bin	0.4	0
bin	0.43333333333333	0
bin	0.46666666666667	0
bin	0.5	0
statistic scenarioPRJP1.node[20].wlan[0].radio 	packetErrorRate:histogram
field count 132032
field mean 0.073287213901535
field stddev 0.25390319319148
field sum 9676.2574258474
field sqrsum 9220.7661792051
field min 0
field max 1
attr source  packetErrorRate
attr title  "Packet error rate, histogram"
bin	-INF	0
bin	-0.5	0
bin	-0.43333333333333	0
bin	-0.36666666666667	0
bin	-0.3	0
bin	-0.23333333333333	0
bin	-0.16666666666667	0
bin	-0.1	0
bin	-0.033333333333333	120378
bin	0.033333333333333	898
bin	0.1	383
bin	0.16666666666667	237
bin	0.23333333333333	202
bin	0.3	159
bin	0.36666666666667	138
bin	0.43333333333333	115
bin	0.5	120
bin	0.56666666666667	115
bin	0.63333333333333	118
bin	0.7	117
bin	0.76666666666667	129
bin	0.83333333333333	143
bin	0.9	262
bin	0.96666666666667	8518
bin	1.0333333333333	0
bin	1.1	0
bin	1.1666666666667	0
bin	1.2333333333333	0
bin	1.3	0
bin	1.3666666666667	0
bin	1.4333333333333	0
bin	1.5	0
statistic scenarioPRJP1.node[20].wlan[0].radio 	minSNIR:histogram
field count 132032
field mean 26629.836014698
field stddev 119300.64481293
field sum 3515990508.6927
field sqrsum 1.9727804512022e+15
field min 0.00017511201575134
field max 753239.71923443
attr source  minSNIR
attr title  "Min SNIR, histogram"
bin	-INF	0
bin	-138.83774812206	0
bin	-120.30350897324	0
bin	-101.76926982442	0
bin	-83.235030675601	0
bin	-64.70079152678	0
bin	-46.166552377959	0
bin	-27.632313229139	0
bin	-9.0980740803177	28226
bin	9.4361650685032	17334
bin	27.970404217324	7573
bin	46.504643366145	4804
bin	65.038882514966	3366
bin	83.573121663787	2544
bin	102.10736081261	1792
bin	120.64159996143	3100
bin	139.17583911025	2787
bin	157.71007825907	2462
bin	176.24431740789	2314
bin	194.77855655671	1743
bin	213.31279570553	1593
bin	231.84703485435	1255
bin	250.38127400317	1115
bin	268.915513152	1123
bin	287.44975230082	1029
bin	305.98399144964	1123
bin	324.51823059846	1048
bin	343.05246974728	873
bin	361.5867088961	744
bin	380.12094804492	695
bin	398.65518719374	561
bin	417.18942634256	42828
scalar scenarioPRJP1.node[20].lo0.lo 	droppedPkBitError:count 	0
attr interpolationmode  none
attr source  dropPkBitError
attr title  "packets dropped/bit error, count"
scalar scenarioPRJP1.node[20].lo0.lo 	droppedPkBitError:sum(packetBytes) 	0
attr interpolationmode  none
attr source  dropPkBitError
attr title  "packets dropped/bit error, sum(packetBytes)"
scalar scenarioPRJP1.node[20].lo0.lo 	rcvdPkFromHL:count 	0
attr interpolationmode  none
attr source  packetReceivedFromUpper
attr title  "packets received from higher layer, count"
scalar scenarioPRJP1.node[20].lo0.lo 	rcvdPkFromHL:sum(packetBytes) 	0
attr interpolationmode  none
attr source  packetReceivedFromUpper
attr title  "packets received from higher layer, sum(packetBytes)"
scalar scenarioPRJP1.node[20].lo0.lo 	passedUpPk:count 	0
attr interpolationmode  none
attr source  packetSentToUpper
attr title  "packets passed to higher layer, count"
scalar scenarioPRJP1.node[20].lo0.lo 	passedUpPk:sum(packetBytes) 	0
attr interpolationmode  none
attr source  packetSentToUpper
attr title  "packets passed to higher layer, sum(packetBytes)"
scalar scenarioPRJP1.node[41].app 	"Total sent" 	2623
scalar scenarioPRJP1.node[41].app 	"Total received" 	171
scalar scenarioPRJP1.node[41].app 	"Total deleted" 	129
scalar scenarioPRJP1.node[41].app 	dropPk:count 	129
attr interpolationmode  none
attr source  dropPk
attr title  "packets dropped, count"
scalar scenarioPRJP1.node[41].app 	dropPk:sum(packetBytes) 	66048
attr interpolationmode  none
attr source  dropPk
attr title  "packets dropped, sum(packetBytes)"
scalar scenarioPRJP1.node[41].app 	outOfOrderPk:count 	32
attr interpolationmode  none
attr source  outOfOrderPk
attr title  "packets received out of order, count"
scalar scenarioPRJP1.node[41].app 	outOfOrderPk:sum(packetBytes) 	16384
attr interpolationmode  none
attr source  outOfOrderPk
attr title  "packets received out of order, sum(packetBytes)"
scalar scenarioPRJP1.node[41].app 	rcvdPk:count 	171
attr interpolationmode  none
attr source  rcvdPk
attr title  "packets received, count"
scalar scenarioPRJP1.node[41].app 	rcvdPk:sum(packetBytes) 	87552
attr interpolationmode  none
attr source  rcvdPk
attr title  "packets received, sum(packetBytes)"
statistic scenarioPRJP1.node[41].app 	endToEndDelay:histogram
field count 171
field mean 1.5670573825064
field stddev 3.8889833639021
field sum 267.96681240859
field sqrsum 2991.0319444518
field min 0.00094451264
field max 16.845208742252
attr interpolationmode  none
attr source  messageAge(rcvdPk)
attr title  "delay, histogram"
attr unit  s
bin	-INF	0
bin	-8.4211865840725	0
bin	-7.2982356806803	0
bin	-6.1752847772881	0
bin	-5.0523338738959	0
bin	-3.9293829705037	0
bin	-2.8064320671115	0
bin	-1.6834811637193	0
bin	-0.5605302603271	134
bin	0.5624206430651	8
bin	1.6853715464573	2
bin	2.8083224498495	6
bin	3.9312733532417	1
bin	5.0542242566339	2
bin	6.1771751600261	0
bin	7.3001260634183	3
bin	8.4230769668105	3
bin	9.5460278702027	2
bin	10.668978773595	0
bin	11.791929676987	3
bin	12.914880580379	1
bin	14.037831483771	0
bin	15.160782387164	4
bin	16.283733290556	2
bin	17.406684193948	0
bin	18.52963509734	0
bin	19.652586000733	0
bin	20.775536904125	0
bin	21.898487807517	0
bin	23.021438710909	0
bin	24.144389614301	0
bin	25.267340517693	0
scalar scenarioPRJP1.node[41].app 	sentPk:count 	2623
attr interpolationmode  none
attr source  sentPk
attr title  "packets sent, count"
scalar scenarioPRJP1.node[41].app 	sentPk:sum(packetBytes) 	1342976
attr interpolationmode  none
attr source  sentPk
attr title  "packets sent, sum(packetBytes)"
scalar scenarioPRJP1.node[41].udp 	droppedPkBadChecksum:count 	0
attr interpolationmode  none
attr title  "packets dropped (checksum error), count"
scalar scenarioPRJP1.node[41].udp 	droppedPkWrongPort:count 	0
attr interpolationmode  none
attr title  "packets dropped (wrong port), count"
scalar scenarioPRJP1.node[41].udp 	passedUpPk:count 	332
attr interpolationmode  none
attr title  "packets passed up, count"
scalar scenarioPRJP1.node[41].udp 	rcvdPk:count 	332
attr interpolationmode  none
attr source  rcvdPk
attr title  "packets received, count"
scalar scenarioPRJP1.node[41].udp 	rcvdPk:sum(packetBytes) 	172640
attr interpolationmode  none
attr source  rcvdPk
attr title  "packets received, sum(packetBytes)"
scalar scenarioPRJP1.node[41].udp 	sentPk:count 	2623
attr interpolationmode  none
attr source  sentPk
attr title  "packets sent, count"
scalar scenarioPRJP1.node[41].udp 	sentPk:sum(packetBytes) 	1363960
attr interpolationmode  none
attr source  sentPk
attr title  "packets sent, sum(packetBytes)"
scalar scenarioPRJP1.node[41].networkLayer.arp 	failedARPResolution:count 	6
attr title  "ARP failed resolutions, count"
scalar scenarioPRJP1.node[41].networkLayer.arp 	completedARPResolution:count 	509
attr title  "ARP completed resolutions, count"
scalar scenarioPRJP1.node[41].networkLayer.arp 	initiatedARPResolution:count 	80
attr title  "ARP initiated resolutions, count"
scalar scenarioPRJP1.node[41].networkLayer.arp 	sentReply:count 	37
attr title  "ARP replies sent, count"
scalar scenarioPRJP1.node[41].networkLayer.arp 	sentReq:count 	112
attr title  "ARP request sent, count"
scalar scenarioPRJP1.node[41].mobility 	startTime 	4.9
scalar scenarioPRJP1.node[41].mobility 	totalTime 	945
scalar scenarioPRJP1.node[41].mobility 	stopTime 	950
scalar scenarioPRJP1.node[41].mobility 	minSpeed 	2.4758061558042e-13
scalar scenarioPRJP1.node[41].mobility 	maxSpeed 	19.477411101393
scalar scenarioPRJP1.node[41].mobility 	totalDistance 	10315.922789357
scalar scenarioPRJP1.node[41].mobility 	totalCO2Emission 	2788.3933515991
scalar scenarioPRJP1.node[41].wlan[0].mgmt 	dataQueueLen:max 	16
attr interpolationmode  sample-hold
attr title  "data queue length, max"
scalar scenarioPRJP1.node[41].wlan[0].mgmt 	dataQueueLen:timeavg 	0
attr interpolationmode  sample-hold
attr title  "data queue length, timeavg"
scalar scenarioPRJP1.node[41].wlan[0].mgmt 	dropPkByQueue:count 	0
attr interpolationmode  none
attr source  dropPkByQueue
attr title  "packets dropped by queue, count"
scalar scenarioPRJP1.node[41].wlan[0].mgmt 	dropPkByQueue:sum(packetBytes) 	0
attr interpolationmode  none
attr source  dropPkByQueue
attr title  "packets dropped by queue, sum(packetBytes)"
scalar scenarioPRJP1.node[41].wlan[0].mac 	"number of received packets" 	4227
scalar scenarioPRJP1.node[41].wlan[0].mac 	"number of collisions" 	16767
scalar scenarioPRJP1.node[41].wlan[0].mac 	"number of internal collisions" 	0
scalar scenarioPRJP1.node[41].wlan[0].mac 	"number of retry for AC 0" 	5724
scalar scenarioPRJP1.node[41].wlan[0].mac 	"number of retry for AC 1" 	0
scalar scenarioPRJP1.node[41].wlan[0].mac 	"number of retry for AC 2" 	0
scalar scenarioPRJP1.node[41].wlan[0].mac 	"number of retry for AC 3" 	0
scalar scenarioPRJP1.node[41].wlan[0].mac 	"sent and received bits" 	13103552
scalar scenarioPRJP1.node[41].wlan[0].mac 	"sent packet within AC 0" 	656
scalar scenarioPRJP1.node[41].wlan[0].mac 	"sent packet within AC 1" 	0
scalar scenarioPRJP1.node[41].wlan[0].mac 	"sent packet within AC 2" 	0
scalar scenarioPRJP1.node[41].wlan[0].mac 	"sent packet within AC 3" 	0
scalar scenarioPRJP1.node[41].wlan[0].mac 	"sent in TXOP " 	0
scalar scenarioPRJP1.node[41].wlan[0].mac 	"sentWithoutRetry AC 0" 	591
scalar scenarioPRJP1.node[41].wlan[0].mac 	"sentWithoutRetry AC 1" 	0
scalar scenarioPRJP1.node[41].wlan[0].mac 	"sentWithoutRetry AC 2" 	0
scalar scenarioPRJP1.node[41].wlan[0].mac 	"sentWithoutRetry AC 3" 	0
scalar scenarioPRJP1.node[41].wlan[0].mac 	"numGivenUp AC 0" 	934
scalar scenarioPRJP1.node[41].wlan[0].mac 	"numGivenUp AC 1" 	0
scalar scenarioPRJP1.node[41].wlan[0].mac 	"numGivenUp AC 2" 	0
scalar scenarioPRJP1.node[41].wlan[0].mac 	"numGivenUp AC 3" 	0
scalar scenarioPRJP1.node[41].wlan[0].mac 	"numDropped AC 0" 	0
scalar scenarioPRJP1.node[41].wlan[0].mac 	"numDropped AC 1" 	0
scalar scenarioPRJP1.node[41].wlan[0].mac 	"numDropped AC 2" 	0
scalar scenarioPRJP1.node[41].wlan[0].mac 	"numDropped AC 3" 	0
scalar scenarioPRJP1.node[41].wlan[0].mac 	rcvdPkFromLL:count 	166778
attr interpolationmode  none
attr source  packetReceivedFromLower
attr title  "packets received from lower layer, count"
scalar scenarioPRJP1.node[41].wlan[0].mac 	rcvdPkFromLL:sum(packetBytes) 	28550090
attr interpolationmode  none
attr source  packetReceivedFromLower
attr title  "packets received from lower layer, sum(packetBytes)"
scalar scenarioPRJP1.node[41].wlan[0].mac 	sentDownPk:count 	26606
attr interpolationmode  none
attr source  packetSentToLower
attr title  "packets sent to lower layer, count"
scalar scenarioPRJP1.node[41].wlan[0].mac 	sentDownPk:sum(packetBytes) 	4585566
attr interpolationmode  none
attr source  packetSentToLower
attr title  "packets sent to lower layer, sum(packetBytes)"
scalar scenarioPRJP1.node[41].wlan[0].mac 	rcvdPkFromHL:count 	16655
attr interpolationmode  none
attr source  packetReceivedFromUpper
attr title  "packets received from higher layer, count"
scalar scenarioPRJP1.node[41].wlan[0].mac 	rcvdPkFromHL:sum(packetBytes) 	2041624
attr interpolationmode  none
attr source  packetReceivedFromUpper
attr title  "packets received from higher layer, sum(packetBytes)"
scalar scenarioPRJP1.node[41].wlan[0].mac 	passedUpPk:count 	72642
attr interpolationmode  none
attr source  packetSentToUpper
attr title  "packets passed to higher layer, count"
scalar scenarioPRJP1.node[41].wlan[0].mac 	passedUpPk:sum(packetBytes) 	6925488
attr interpolationmode  none
attr source  packetSentToUpper
attr title  "packets passed to higher layer, sum(packetBytes)"
statistic scenarioPRJP1.node[41].wlan[0].radio 	radioChannel:histogram
field count 1
field mean 3
field stddev nan
field sum 3
field sqrsum 9
field min 3
field max 3
attr interpolationmode  sample-hold
attr source  radioChannelChanged
attr title  "Radio channel, histogram"
bin	-INF	0
bin	2	0
bin	3	1
bin	4	0
scalar scenarioPRJP1.node[41].wlan[0].radio 	transmissionState:count 	106424
attr interpolationmode  sample-hold
attr source  transmissionStateChanged
attr title  "Radio transmission state, count"
scalar scenarioPRJP1.node[41].wlan[0].radio 	receptionState:count 	389008
attr interpolationmode  sample-hold
attr source  receptionStateChanged
attr title  "Radio reception state, count"
scalar scenarioPRJP1.node[41].wlan[0].radio 	radioMode:count 	53214
attr interpolationmode  sample-hold
attr source  radioModeChanged
attr title  "Radio mode, count"
statistic scenarioPRJP1.node[41].wlan[0].radio 	symbolErrorRate:histogram
field count 0
field mean nan
field stddev nan
field sum 0
field sqrsum 0
field min nan
field max nan
attr source  symbolErrorRate
attr title  "Symbol error rate, histogram"
bin	-INF	0
bin	-0.5	0
bin	-0.46666666666667	0
bin	-0.43333333333333	0
bin	-0.4	0
bin	-0.36666666666667	0
bin	-0.33333333333333	0
bin	-0.3	0
bin	-0.26666666666667	0
bin	-0.23333333333333	0
bin	-0.2	0
bin	-0.16666666666667	0
bin	-0.13333333333333	0
bin	-0.1	0
bin	-0.066666666666667	0
bin	-0.033333333333333	0
bin	0	0
bin	0.033333333333333	0
bin	0.066666666666667	0
bin	0.1	0
bin	0.13333333333333	0
bin	0.16666666666667	0
bin	0.2	0
bin	0.23333333333333	0
bin	0.26666666666667	0
bin	0.3	0
bin	0.33333333333333	0
bin	0.36666666666667	0
bin	0.4	0
bin	0.43333333333333	0
bin	0.46666666666667	0
bin	0.5	0
statistic scenarioPRJP1.node[41].wlan[0].radio 	bitErrorRate:histogram
field count 0
field mean nan
field stddev nan
field sum 0
field sqrsum 0
field min nan
field max nan
attr source  bitErrorRate
attr title  "Bit error rate, histogram"
bin	-INF	0
bin	-0.5	0
bin	-0.46666666666667	0
bin	-0.43333333333333	0
bin	-0.4	0
bin	-0.36666666666667	0
bin	-0.33333333333333	0
bin	-0.3	0
bin	-0.26666666666667	0
bin	-0.23333333333333	0
bin	-0.2	0
bin	-0.16666666666667	0
bin	-0.13333333333333	0
bin	-0.1	0
bin	-0.066666666666667	0
bin	-0.033333333333333	0
bin	0	0
bin	0.033333333333333	0
bin	0.066666666666667	0
bin	0.1	0
bin	0.13333333333333	0
bin	0.16666666666667	0
bin	0.2	0
bin	0.23333333333333	0
bin	0.26666666666667	0
bin	0.3	0
bin	0.33333333333333	0
bin	0.36666666666667	0
bin	0.4	0
bin	0.43333333333333	0
bin	0.46666666666667	0
bin	0.5	0
statistic scenarioPRJP1.node[41].wlan[0].radio 	packetErrorRate:histogram
field count 166778
field mean 0.086284803868235
field stddev 0.27337830763628
field sum 14390.407019537
field sqrsum 13705.869133743
field min 0
field max 1
attr source  packetErrorRate
attr title  "Packet error rate, histogram"
bin	-INF	0
bin	-4.2843085386601e-06	0
bin	-3.7130674001721e-06	0
bin	-3.1418262616841e-06	0
bin	-2.5705851231961e-06	0
bin	-1.9993439847081e-06	0
bin	-1.42810284622e-06	0
bin	-8.5686170773203e-07	0
bin	-2.8562056924401e-07	137448
bin	2.8562056924401e-07	947
bin	8.5686170773203e-07	461
bin	1.42810284622e-06	301
bin	1.9993439847081e-06	230
bin	2.5705851231961e-06	189
bin	3.1418262616841e-06	143
bin	3.7130674001721e-06	149
bin	4.2843085386601e-06	106
bin	4.8555496771481e-06	92
bin	5.4267908156362e-06	103
bin	5.9980319541242e-06	87
bin	6.5692730926122e-06	81
bin	7.1405142311002e-06	66
bin	7.7117553695882e-06	90
bin	8.2829965080763e-06	81
bin	8.8542376465643e-06	57
bin	9.4254787850523e-06	52
bin	9.9967199235403e-06	70
bin	1.0567961062028e-05	49
bin	1.1139202200516e-05	40
bin	1.1710443339004e-05	57
bin	1.2281684477492e-05	36
bin	1.285292561598e-05	25843
statistic scenarioPRJP1.node[41].wlan[0].radio 	minSNIR:histogram
field count 166778
field mean 7156.7783446731
field stddev 46738.31091996
field sum 1193593178.7679
field sqrsum 3.7286158624704e+14
field min 0.00030187550290805
field max 1474531.3753546
attr source  minSNIR
attr title  "Min SNIR, histogram"
bin	-INF	0
bin	-1639.4933781178	0
bin	-1420.4123798171	0
bin	-1201.3313815163	0
bin	-982.25038321556	0
bin	-763.1693849148	0
bin	-544.08838661404	0
bin	-325.00738831328	0
bin	-105.92639001252	83666
bin	113.15460828823	29358
bin	332.23560658899	9200
bin	551.31660488975	4475
bin	770.39760319051	2810
bin	989.47860149127	2122
bin	1208.559599792	1857
bin	1427.6405980928	1692
bin	1646.7215963935	1418
bin	1865.8025946943	1117
bin	2084.8835929951	937
bin	2303.9645912958	1031
bin	2523.0455895966	794
bin	2742.1265878973	783
bin	2961.2075861981	672
bin	3180.2885844988	718
bin	3399.3695827996	612
bin	3618.4505811004	646
bin	3837.5315794011	497
bin	4056.6125777019	395
bin	4275.6935760026	456
bin	4494.7745743034	429
bin	4713.8555726042	389
bin	4932.9365709049	20704
scalar scenarioPRJP1.node[41].lo0.lo 	droppedPkBitError:count 	0
attr interpolationmode  none
attr source  dropPkBitError
attr title  "packets dropped/bit error, count"
scalar scenarioPRJP1.node[41].lo0.lo 	droppedPkBitError:sum(packetBytes) 	0
attr interpolationmode  none
attr source  dropPkBitError
attr title  "packets dropped/bit error, sum(packetBytes)"
scalar scenarioPRJP1.node[41].lo0.lo 	rcvdPkFromHL:count 	0
attr interpolationmode  none
attr source  packetReceivedFromUpper
attr title  "packets received from higher layer, count"
scalar scenarioPRJP1.node[41].lo0.lo 	rcvdPkFromHL:sum(packetBytes) 	0
attr interpolationmode  none
attr source  packetReceivedFromUpper
attr title  "packets received from higher layer, sum(packetBytes)"
scalar scenarioPRJP1.node[41].lo0.lo 	passedUpPk:count 	0
attr interpolationmode  none
attr source  packetSentToUpper
attr title  "packets passed to higher layer, count"
scalar scenarioPRJP1.node[41].lo0.lo 	passedUpPk:sum(packetBytes) 	0
attr interpolationmode  none
attr source  packetSentToUpper
attr title  "packets passed to higher layer, sum(packetBytes)"
scalar scenarioPRJP1.node[61].app 	"Total sent" 	2605
scalar scenarioPRJP1.node[61].app 	"Total received" 	169
scalar scenarioPRJP1.node[61].app 	"Total deleted" 	131
scalar scenarioPRJP1.node[61].app 	dropPk:count 	131
attr interpolationmode  none
attr source  dropPk
attr title  "packets dropped, count"
scalar scenarioPRJP1.node[61].app 	dropPk:sum(packetBytes) 	67072
attr interpolationmode  none
attr source  dropPk
attr title  "packets dropped, sum(packetBytes)"
scalar scenarioPRJP1.node[61].app 	outOfOrderPk:count 	59
attr interpolationmode  none
attr source  outOfOrderPk
attr title  "packets received out of order, count"
scalar scenarioPRJP1.node[61].app 	outOfOrderPk:sum(packetBytes) 	30208
attr interpolationmode  none
attr source  outOfOrderPk
attr title  "packets received out of order, sum(packetBytes)"
scalar scenarioPRJP1.node[61].app 	rcvdPk:count 	169
attr interpolationmode  none
attr source  rcvdPk
attr title  "packets received, count"
scalar scenarioPRJP1.node[61].app 	rcvdPk:sum(packetBytes) 	86528
attr interpolationmode  none
attr source  rcvdPk
attr title  "packets received, sum(packetBytes)"
statistic scenarioPRJP1.node[61].app 	endToEndDelay:histogram
field count 169
field mean 1.7526943867201
field stddev 4.5379636760886
field sum 296.2053513557
field sqrsum 3978.8006633215
field min 0.000945025215
field max 19.821601594282
attr interpolationmode  none
attr source  messageAge(rcvdPk)
attr title  "delay, histogram"
attr unit  s
bin	-INF	0
bin	-9.5499079978485	0
bin	-8.2764609281067	0
bin	-7.0030138583649	0
bin	-5.7295667886231	0
bin	-4.4561197188813	0
bin	-3.1826726491395	0
bin	-1.9092255793977	0
bin	-0.6357785096559	139
bin	0.6376685600859	4
bin	1.9111156298277	1
bin	3.1845626995695	3
bin	4.4580097693113	2
bin	5.7314568390531	2
bin	7.0049039087949	1
bin	8.2783509785367	1
bin	9.5517980482785	2
bin	10.82524511802	2
bin	12.098692187762	2
bin	13.372139257504	3
bin	14.645586327246	1
bin	15.919033396987	2
bin	17.192480466729	1
bin	18.465927536471	2
bin	19.739374606213	1
bin	21.012821675955	0
bin	22.286268745696	0
bin	23.559715815438	0
bin	24.83316288518	0
bin	26.106609954922	0
bin	27.380057024664	0
bin	28.653504094405	0
scalar scenarioPRJP1.node[61].app 	sentPk:count 	2605
attr interpolationmode  none
attr source  sentPk
attr title  "packets sent, count"
scalar scenarioPRJP1.node[61].app 	sentPk:sum(packetBytes) 	1333760
attr interpolationmode  none
attr source  sentPk
attr title  "packets sent, sum(packetBytes)"
scalar scenarioPRJP1.node[61].udp 	droppedPkBadChecksum:count 	0
attr interpolationmode  none
attr title  "packets dropped (checksum error), count"
scalar scenarioPRJP1.node[61].udp 	droppedPkWrongPort:count 	0
attr interpolationmode  none
attr title  "packets dropped (wrong port), count"
scalar scenarioPRJP1.node[61].udp 	passedUpPk:count 	359
attr interpolationmode  none
attr title  "packets passed up, count"
scalar scenarioPRJP1.node[61].udp 	rcvdPk:count 	359
attr interpolationmode  none
attr source  rcvdPk
attr title  "packets received, count"
scalar scenarioPRJP1.node[61].udp 	rcvdPk:sum(packetBytes) 	186680
attr interpolationmode  none
attr source  rcvdPk
attr title  "packets received, sum(packetBytes)"
scalar scenarioPRJP1.node[61].udp 	sentPk:count 	2605
attr interpolationmode  none
attr source  sentPk
attr title  "packets sent, count"
scalar scenarioPRJP1.node[61].udp 	sentPk:sum(packetBytes) 	1354600
attr interpolationmode  none
attr source  sentPk
attr title  "packets sent, sum(packetBytes)"
scalar scenarioPRJP1.node[61].networkLayer.arp 	failedARPResolution:count 	15
attr title  "ARP failed resolutions, count"
scalar scenarioPRJP1.node[61].networkLayer.arp 	completedARPResolution:count 	389
attr title  "ARP completed resolutions, count"
scalar scenarioPRJP1.node[61].networkLayer.arp 	initiatedARPResolution:count 	65
attr title  "ARP initiated resolutions, count"
scalar scenarioPRJP1.node[61].networkLayer.arp 	sentReply:count 	51
attr title  "ARP replies sent, count"
scalar scenarioPRJP1.node[61].networkLayer.arp 	sentReq:count 	108
attr title  "ARP request sent, count"
scalar scenarioPRJP1.node[61].mobility 	startTime 	7.3
scalar scenarioPRJP1.node[61].mobility 	totalTime 	942.6
scalar scenarioPRJP1.node[61].mobility 	stopTime 	950
scalar scenarioPRJP1.node[61].mobility 	minSpeed 	2.4757635390245e-13
scalar scenarioPRJP1.node[61].mobility 	maxSpeed 	18.731686190477
scalar scenarioPRJP1.node[61].mobility 	totalDistance 	9692.8015918194
scalar scenarioPRJP1.node[61].mobility 	totalCO2Emission 	2569.013167184
scalar scenarioPRJP1.node[61].wlan[0].mgmt 	dataQueueLen:max 	26
attr interpolationmode  sample-hold
attr title  "data queue length, max"
scalar scenarioPRJP1.node[61].wlan[0].mgmt 	dataQueueLen:timeavg 	0
attr interpolationmode  sample-hold
attr title  "data queue length, timeavg"
scalar scenarioPRJP1.node[61].wlan[0].mgmt 	dropPkByQueue:count 	0
attr interpolationmode  none
attr source  dropPkByQueue
attr title  "packets dropped by queue, count"
scalar scenarioPRJP1.node[61].wlan[0].mgmt 	dropPkByQueue:sum(packetBytes) 	0
attr interpolationmode  none
attr source  dropPkByQueue
attr title  "packets dropped by queue, sum(packetBytes)"
scalar scenarioPRJP1.node[61].wlan[0].mac 	"number of received packets" 	4036
scalar scenarioPRJP1.node[61].wlan[0].mac 	"number of collisions" 	17747
scalar scenarioPRJP1.node[61].wlan[0].mac 	"number of internal collisions" 	0
scalar scenarioPRJP1.node[61].wlan[0].mac 	"number of retry for AC 0" 	6292
scalar scenarioPRJP1.node[61].wlan[0].mac 	"number of retry for AC 1" 	6
scalar scenarioPRJP1.node[61].wlan[0].mac 	"number of retry for AC 2" 	0
scalar scenarioPRJP1.node[61].wlan[0].mac 	"number of retry for AC 3" 	0
scalar scenarioPRJP1.node[61].wlan[0].mac 	"sent and received bits" 	13287072
scalar scenarioPRJP1.node[61].wlan[0].mac 	"sent packet within AC 0" 	748
scalar scenarioPRJP1.node[61].wlan[0].mac 	"sent packet within AC 1" 	5
scalar scenarioPRJP1.node[61].wlan[0].mac 	"sent packet within AC 2" 	0
scalar scenarioPRJP1.node[61].wlan[0].mac 	"sent packet within AC 3" 	0
scalar scenarioPRJP1.node[61].wlan[0].mac 	"sent in TXOP " 	0
scalar scenarioPRJP1.node[61].wlan[0].mac 	"sentWithoutRetry AC 0" 	682
scalar scenarioPRJP1.node[61].wlan[0].mac 	"sentWithoutRetry AC 1" 	5
scalar scenarioPRJP1.node[61].wlan[0].mac 	"sentWithoutRetry AC 2" 	0
scalar scenarioPRJP1.node[61].wlan[0].mac 	"sentWithoutRetry AC 3" 	0
scalar scenarioPRJP1.node[61].wlan[0].mac 	"numGivenUp AC 0" 	1030
scalar scenarioPRJP1.node[61].wlan[0].mac 	"numGivenUp AC 1" 	1
scalar scenarioPRJP1.node[61].wlan[0].mac 	"numGivenUp AC 2" 	0
scalar scenarioPRJP1.node[61].wlan[0].mac 	"numGivenUp AC 3" 	0
scalar scenarioPRJP1.node[61].wlan[0].mac 	"numDropped AC 0" 	1
scalar scenarioPRJP1.node[61].wlan[0].mac 	"numDropped AC 1" 	0
scalar scenarioPRJP1.node[61].wlan[0].mac 	"numDropped AC 2" 	0
scalar scenarioPRJP1.node[61].wlan[0].mac 	"numDropped AC 3" 	0
scalar scenarioPRJP1.node[61].wlan[0].mac 	rcvdPkFromLL:count 	139402
attr interpolationmode  none
attr source  packetReceivedFromLower
attr title  "packets received from lower layer, count"
scalar scenarioPRJP1.node[61].wlan[0].mac 	rcvdPkFromLL:sum(packetBytes) 	23315018
attr interpolationmode  none
attr source  packetReceivedFromLower
attr title  "packets received from lower layer, sum(packetBytes)"
scalar scenarioPRJP1.node[61].wlan[0].mac 	sentDownPk:count 	26705
attr interpolationmode  none
attr source  packetSentToLower
attr title  "packets sent to lower layer, count"
scalar scenarioPRJP1.node[61].wlan[0].mac 	sentDownPk:sum(packetBytes) 	5095052
attr interpolationmode  none
attr source  packetSentToLower
attr title  "packets sent to lower layer, sum(packetBytes)"
scalar scenarioPRJP1.node[61].wlan[0].mac 	rcvdPkFromHL:count 	16372
attr interpolationmode  none
attr source  packetReceivedFromUpper
attr title  "packets received from higher layer, count"
scalar scenarioPRJP1.node[61].wlan[0].mac 	rcvdPkFromHL:sum(packetBytes) 	2135892
attr interpolationmode  none
attr source  packetReceivedFromUpper
attr title  "packets received from higher layer, sum(packetBytes)"
scalar scenarioPRJP1.node[61].wlan[0].mac 	passedUpPk:count 	62547
attr interpolationmode  none
attr source  packetSentToUpper
attr title  "packets passed to higher layer, count"
scalar scenarioPRJP1.node[61].wlan[0].mac 	passedUpPk:sum(packetBytes) 	6091412
attr interpolationmode  none
attr source  packetSentToUpper
attr title  "packets passed to higher layer, sum(packetBytes)"
statistic scenarioPRJP1.node[61].wlan[0].radio 	radioChannel:histogram
field count 1
field mean 3
field stddev nan
field sum 3
field sqrsum 9
field min 3
field max 3
attr interpolationmode  sample-hold
attr source  radioChannelChanged
attr title  "Radio channel, histogram"
bin	-INF	0
bin	2	0
bin	3	1
bin	4	0
scalar scenarioPRJP1.node[61].wlan[0].radio 	transmissionState:count 	106820
attr interpolationmode  sample-hold
attr source  transmissionStateChanged
attr title  "Radio transmission state, count"
scalar scenarioPRJP1.node[61].wlan[0].radio 	receptionState:count 	334270
attr interpolationmode  sample-hold
attr source  receptionStateChanged
attr title  "Radio reception state, count"
scalar scenarioPRJP1.node[61].wlan[0].radio 	radioMode:count 	53412
attr interpolationmode  sample-hold
attr source  radioModeChanged
attr title  "Radio mode, count"
statistic scenarioPRJP1.node[61].wlan[0].radio 	symbolErrorRate:histogram
field count 0
field mean nan
field stddev nan
field sum 0
field sqrsum 0
field min nan
field max nan
attr source  symbolErrorRate
attr title  "Symbol error rate, histogram"
bin	-INF	0
bin	-0.5	0
bin	-0.46666666666667	0
bin	-0.43333333333333	0
bin	-0.4	0
bin	-0.36666666666667	0
bin	-0.33333333333333	0
bin	-0.3	0
bin	-0.26666666666667	0
bin	-0.23333333333333	0
bin	-0.2	0
bin	-0.16666666666667	0
bin	-0.13333333333333	0
bin	-0.1	0
bin	-0.066666666666667	0
bin	-0.033333333333333	0
bin	0	0
bin	0.033333333333333	0
bin	0.066666666666667	0
bin	0.1	0
bin	0.13333333333333	0
bin	0.16666666666667	0
bin	0.2	0
bin	0.23333333333333	0
bin	0.26666666666667	0
bin	0.3	0
bin	0.33333333333333	0
bin	0.36666666666667	0
bin	0.4	0
bin	0.43333333333333	0
bin	0.46666666666667	0
bin	0.5	0
statistic scenarioPRJP1.node[61].wlan[0].radio 	bitErrorRate:histogram
field count 0
field mean nan
field stddev nan
field sum 0
field sqrsum 0
field min nan
field max nan
attr source  bitErrorRate
attr title  "Bit error rate, histogram"
bin	-INF	0
bin	-0.5	0
bin	-0.46666666666667	0
bin	-0.43333333333333	0
bin	-0.4	0
bin	-0.36666666666667	0
bin	-0.33333333333333	0
bin	-0.3	0
bin	-0.26666666666667	0
bin	-0.23333333333333	0
bin	-0.2	0
bin	-0.16666666666667	0
bin	-0.13333333333333	0
bin	-0.1	0
bin	-0.066666666666667	0
bin	-0.033333333333333	0
bin	0	0
bin	0.033333333333333	0
bin	0.066666666666667	0
bin	0.1	0
bin	0.13333333333333	0
bin	0.16666666666667	0
bin	0.2	0
bin	0.23333333333333	0
bin	0.26666666666667	0
bin	0.3	0
bin	0.33333333333333	0
bin	0.36666666666667	0
bin	0.4	0
bin	0.43333333333333	0
bin	0.46666666666667	0
bin	0.5	0
statistic scenarioPRJP1.node[61].wlan[0].radio 	packetErrorRate:histogram
field count 139402
field mean 0.11092159294791
field stddev 0.30637743212333
field sum 15462.691900124
field sqrsum 14800.318333435
field min 0
field max 1
attr source  packetErrorRate
attr title  "Packet error rate, histogram"
bin	-INF	0
bin	-6.9442163141975e-07	0
bin	-6.0183208056378e-07	0
bin	-5.0924252970782e-07	0
bin	-4.1665297885185e-07	0
bin	-3.2406342799588e-07	0
bin	-2.3147387713992e-07	0
bin	-1.3888432628395e-07	0
bin	-4.6294775427983e-08	108802
bin	4.6294775427983e-08	832
bin	1.3888432628395e-07	409
bin	2.3147387713992e-07	261
bin	3.2406342799588e-07	189
bin	4.1665297885185e-07	143
bin	5.0924252970782e-07	126
bin	6.0183208056378e-07	138
bin	6.9442163141975e-07	77
bin	7.8701118227572e-07	91
bin	8.7960073313168e-07	96
bin	9.7219028398765e-07	84
bin	1.0647798348436e-06	58
bin	1.1573693856996e-06	77
bin	1.2499589365556e-06	58
bin	1.3425484874115e-06	65
bin	1.4351380382675e-06	39
bin	1.5277275891235e-06	34
bin	1.6203171399794e-06	33
bin	1.7129066908354e-06	36
bin	1.8054962416914e-06	47
bin	1.8980857925473e-06	37
bin	1.9906753434033e-06	36
bin	2.0832648942593e-06	27634
statistic scenarioPRJP1.node[61].wlan[0].radio 	minSNIR:histogram
field count 139402
field mean 4458.9903660509
field stddev 27667.801919404
field sum 621592175.00823
field sqrsum 1.094841514966e+14
field min 0.00022821537396564
field max 753239.71923441
attr source  minSNIR
attr title  "Min SNIR, histogram"
bin	-INF	0
bin	-338.76943298486	0
bin	-292.96334164144	0
bin	-247.15725029801	0
bin	-201.35115895459	0
bin	-155.54506761117	0
bin	-109.73897626774	0
bin	-63.932884924322	0
bin	-18.126793580899	56541
bin	27.679297762524	13335
bin	73.485389105947	6125
bin	119.29148044937	9178
bin	165.09757179279	5855
bin	210.90366313622	4521
bin	256.70975447964	3413
bin	302.51584582306	2694
bin	348.32193716648	2123
bin	394.12802850991	1679
bin	439.93411985333	1145
bin	485.74021119675	1130
bin	531.54630254018	1032
bin	577.3523938836	963
bin	623.15848522702	745
bin	668.96457657044	719
bin	714.77066791387	767
bin	760.57675925729	646
bin	806.38285060071	603
bin	852.18894194413	527
bin	897.99503328756	462
bin	943.80112463098	402
bin	989.6072159744	390
bin	1035.4133073178	24407
scalar scenarioPRJP1.node[61].lo0.lo 	droppedPkBitError:count 	0
attr interpolationmode  none
attr source  dropPkBitError
attr title  "packets dropped/bit error, count"
scalar scenarioPRJP1.node[61].lo0.lo 	droppedPkBitError:sum(packetBytes) 	0
attr interpolationmode  none
attr source  dropPkBitError
attr title  "packets dropped/bit error, sum(packetBytes)"
scalar scenarioPRJP1.node[61].lo0.lo 	rcvdPkFromHL:count 	0
attr interpolationmode  none
attr source  packetReceivedFromUpper
attr title  "packets received from higher layer, count"
scalar scenarioPRJP1.node[61].lo0.lo 	rcvdPkFromHL:sum(packetBytes) 	0
attr interpolationmode  none
attr source  packetReceivedFromUpper
attr title  "packets received from higher layer, sum(packetBytes)"
scalar scenarioPRJP1.node[61].lo0.lo 	passedUpPk:count 	0
attr interpolationmode  none
attr source  packetSentToUpper
attr title  "packets passed to higher layer, count"
scalar scenarioPRJP1.node[61].lo0.lo 	passedUpPk:sum(packetBytes) 	0
attr interpolationmode  none
attr source  packetSentToUpper
attr title  "packets passed to higher layer, sum(packetBytes)"
scalar scenarioPRJP1.node[1].app 	"Total sent" 	2615
scalar scenarioPRJP1.node[1].app 	"Total received" 	178
scalar scenarioPRJP1.node[1].app 	"Total deleted" 	62
scalar scenarioPRJP1.node[1].app 	dropPk:count 	62
attr interpolationmode  none
attr source  dropPk
attr title  "packets dropped, count"
scalar scenarioPRJP1.node[1].app 	dropPk:sum(packetBytes) 	31744
attr interpolationmode  none
attr source  dropPk
attr title  "packets dropped, sum(packetBytes)"
scalar scenarioPRJP1.node[1].app 	outOfOrderPk:count 	19
attr interpolationmode  none
attr source  outOfOrderPk
attr title  "packets received out of order, count"
scalar scenarioPRJP1.node[1].app 	outOfOrderPk:sum(packetBytes) 	9728
attr interpolationmode  none
attr source  outOfOrderPk
attr title  "packets received out of order, sum(packetBytes)"
scalar scenarioPRJP1.node[1].app 	rcvdPk:count 	178
attr interpolationmode  none
attr source  rcvdPk
attr title  "packets received, count"
scalar scenarioPRJP1.node[1].app 	rcvdPk:sum(packetBytes) 	91136
attr interpolationmode  none
attr source  rcvdPk
attr title  "packets received, sum(packetBytes)"
statistic scenarioPRJP1.node[1].app 	endToEndDelay:histogram
field count 178
field mean 1.0156195563784
field stddev 3.3327041878027
field sum 180.78028103535
field sqrsum 2149.5283338285
field min 0.000945131114
field max 18.80798584492
attr interpolationmode  none
attr source  messageAge(rcvdPk)
attr title  "delay, histogram"
attr unit  s
bin	-INF	0
bin	-9.218781591102	0
bin	-7.9894846871663	0
bin	-6.7601877832305	0
bin	-5.5308908792948	0
bin	-4.3015939753591	0
bin	-3.0722970714233	0
bin	-1.8430001674876	0
bin	-0.61370326355187	154
bin	0.61559364038387	5
bin	1.8448905443196	5
bin	3.0741874482553	0
bin	4.3034843521911	0
bin	5.5327812561268	1
bin	6.7620781600625	2
bin	7.9913750639983	2
bin	9.220671967934	2
bin	10.44996887187	1
bin	11.679265775805	0
bin	12.908562679741	1
bin	14.137859583677	3
bin	15.367156487613	0
bin	16.596453391548	0
bin	17.825750295484	2
bin	19.05504719942	0
bin	20.284344103356	0
bin	21.513641007291	0
bin	22.742937911227	0
bin	23.972234815163	0
bin	25.201531719099	0
bin	26.430828623034	0
bin	27.66012552697	0
scalar scenarioPRJP1.node[1].app 	sentPk:count 	2615
attr interpolationmode  none
attr source  sentPk
attr title  "packets sent, count"
scalar scenarioPRJP1.node[1].app 	sentPk:sum(packetBytes) 	1338880
attr interpolationmode  none
attr source  sentPk
attr title  "packets sent, sum(packetBytes)"
scalar scenarioPRJP1.node[1].udp 	droppedPkBadChecksum:count 	0
attr interpolationmode  none
attr title  "packets dropped (checksum error), count"
scalar scenarioPRJP1.node[1].udp 	droppedPkWrongPort:count 	0
attr interpolationmode  none
attr title  "packets dropped (wrong port), count"
scalar scenarioPRJP1.node[1].udp 	passedUpPk:count 	259
attr interpolationmode  none
attr title  "packets passed up, count"
scalar scenarioPRJP1.node[1].udp 	rcvdPk:count 	259
attr interpolationmode  none
attr source  rcvdPk
attr title  "packets received, count"
scalar scenarioPRJP1.node[1].udp 	rcvdPk:sum(packetBytes) 	134680
attr interpolationmode  none
attr source  rcvdPk
attr title  "packets received, sum(packetBytes)"
scalar scenarioPRJP1.node[1].udp 	sentPk:count 	2615
attr interpolationmode  none
attr source  sentPk
attr title  "packets sent, count"
scalar scenarioPRJP1.node[1].udp 	sentPk:sum(packetBytes) 	1359800
attr interpolationmode  none
attr source  sentPk
attr title  "packets sent, sum(packetBytes)"
scalar scenarioPRJP1.node[1].networkLayer.arp 	failedARPResolution:count 	8
attr title  "ARP failed resolutions, count"
scalar scenarioPRJP1.node[1].networkLayer.arp 	completedARPResolution:count 	420
attr title  "ARP completed resolutions, count"
scalar scenarioPRJP1.node[1].networkLayer.arp 	initiatedARPResolution:count 	68
attr title  "ARP initiated resolutions, count"
scalar scenarioPRJP1.node[1].networkLayer.arp 	sentReply:count 	44
attr title  "ARP replies sent, count"
scalar scenarioPRJP1.node[1].networkLayer.arp 	sentReq:count 	98
attr title  "ARP request sent, count"
scalar scenarioPRJP1.node[1].mobility 	startTime 	0.1
scalar scenarioPRJP1.node[1].mobility 	totalTime 	949.8
scalar scenarioPRJP1.node[1].mobility 	stopTime 	950
scalar scenarioPRJP1.node[1].mobility 	minSpeed 	2.4756487365574e-13
scalar scenarioPRJP1.node[1].mobility 	maxSpeed 	17.807026080444
scalar scenarioPRJP1.node[1].mobility 	totalDistance 	8603.199508782
scalar scenarioPRJP1.node[1].mobility 	totalCO2Emission 	2457.0655106939
scalar scenarioPRJP1.node[1].wlan[0].mgmt 	dataQueueLen:max 	16
attr interpolationmode  sample-hold
attr title  "data queue length, max"
scalar scenarioPRJP1.node[1].wlan[0].mgmt 	dataQueueLen:timeavg 	0
attr interpolationmode  sample-hold
attr title  "data queue length, timeavg"
scalar scenarioPRJP1.node[1].wlan[0].mgmt 	dropPkByQueue:count 	0
attr interpolationmode  none
attr source  dropPkByQueue
attr title  "packets dropped by queue, count"
scalar scenarioPRJP1.node[1].wlan[0].mgmt 	dropPkByQueue:sum(packetBytes) 	0
attr interpolationmode  none
attr source  dropPkByQueue
attr title  "packets dropped by queue, sum(packetBytes)"
scalar scenarioPRJP1.node[1].wlan[0].mac 	"number of received packets" 	3561
scalar scenarioPRJP1.node[1].wlan[0].mac 	"number of collisions" 	11050
scalar scenarioPRJP1.node[1].wlan[0].mac 	"number of internal collisions" 	0
scalar scenarioPRJP1.node[1].wlan[0].mac 	"number of retry for AC 0" 	4953
scalar scenarioPRJP1.node[1].wlan[0].mac 	"number of retry for AC 1" 	0
scalar scenarioPRJP1.node[1].wlan[0].mac 	"number of retry for AC 2" 	0
scalar scenarioPRJP1.node[1].wlan[0].mac 	"number of retry for AC 3" 	0
scalar scenarioPRJP1.node[1].wlan[0].mac 	"sent and received bits" 	11586144
scalar scenarioPRJP1.node[1].wlan[0].mac 	"sent packet within AC 0" 	526
scalar scenarioPRJP1.node[1].wlan[0].mac 	"sent packet within AC 1" 	0
scalar scenarioPRJP1.node[1].wlan[0].mac 	"sent packet within AC 2" 	0
scalar scenarioPRJP1.node[1].wlan[0].mac 	"sent packet within AC 3" 	0
scalar scenarioPRJP1.node[1].wlan[0].mac 	"sent in TXOP " 	0
scalar scenarioPRJP1.node[1].wlan[0].mac 	"sentWithoutRetry AC 0" 	502
scalar scenarioPRJP1.node[1].wlan[0].mac 	"sentWithoutRetry AC 1" 	0
scalar scenarioPRJP1.node[1].wlan[0].mac 	"sentWithoutRetry AC 2" 	0
scalar scenarioPRJP1.node[1].wlan[0].mac 	"sentWithoutRetry AC 3" 	0
scalar scenarioPRJP1.node[1].wlan[0].mac 	"numGivenUp AC 0" 	817
scalar scenarioPRJP1.node[1].wlan[0].mac 	"numGivenUp AC 1" 	0
scalar scenarioPRJP1.node[1].wlan[0].mac 	"numGivenUp AC 2" 	0
scalar scenarioPRJP1.node[1].wlan[0].mac 	"numGivenUp AC 3" 	0
scalar scenarioPRJP1.node[1].wlan[0].mac 	"numDropped AC 0" 	0
scalar scenarioPRJP1.node[1].wlan[0].mac 	"numDropped AC 1" 	0
scalar scenarioPRJP1.node[1].wlan[0].mac 	"numDropped AC 2" 	0
scalar scenarioPRJP1.node[1].wlan[0].mac 	"numDropped AC 3" 	0
scalar scenarioPRJP1.node[1].wlan[0].mac 	rcvdPkFromLL:count 	125422
attr interpolationmode  none
attr source  packetReceivedFromLower
attr title  "packets received from lower layer, count"
scalar scenarioPRJP1.node[1].wlan[0].mac 	rcvdPkFromLL:sum(packetBytes) 	22443744
attr interpolationmode  none
attr source  packetReceivedFromLower
attr title  "packets received from lower layer, sum(packetBytes)"
scalar scenarioPRJP1.node[1].wlan[0].mac 	sentDownPk:count 	23392
attr interpolationmode  none
attr source  packetSentToLower
attr title  "packets sent to lower layer, count"
scalar scenarioPRJP1.node[1].wlan[0].mac 	sentDownPk:sum(packetBytes) 	4169270
attr interpolationmode  none
attr source  packetSentToLower
attr title  "packets sent to lower layer, sum(packetBytes)"
scalar scenarioPRJP1.node[1].wlan[0].mac 	rcvdPkFromHL:count 	14878
attr interpolationmode  none
attr source  packetReceivedFromUpper
attr title  "packets received from higher layer, count"
scalar scenarioPRJP1.node[1].wlan[0].mac 	rcvdPkFromHL:sum(packetBytes) 	1826648
attr interpolationmode  none
attr source  packetReceivedFromUpper
attr title  "packets received from higher layer, sum(packetBytes)"
scalar scenarioPRJP1.node[1].wlan[0].mac 	passedUpPk:count 	64209
attr interpolationmode  none
attr source  packetSentToUpper
attr title  "packets passed to higher layer, count"
scalar scenarioPRJP1.node[1].wlan[0].mac 	passedUpPk:sum(packetBytes) 	6083744
attr interpolationmode  none
attr source  packetSentToUpper
attr title  "packets passed to higher layer, sum(packetBytes)"
statistic scenarioPRJP1.node[1].wlan[0].radio 	radioChannel:histogram
field count 1
field mean 3
field stddev nan
field sum 3
field sqrsum 9
field min 3
field max 3
attr interpolationmode  sample-hold
attr source  radioChannelChanged
attr title  "Radio channel, histogram"
bin	-INF	0
bin	2	0
bin	3	1
bin	4	0
scalar scenarioPRJP1.node[1].wlan[0].radio 	transmissionState:count 	93568
attr interpolationmode  sample-hold
attr source  transmissionStateChanged
attr title  "Radio transmission state, count"
scalar scenarioPRJP1.node[1].wlan[0].radio 	receptionState:count 	299207
attr interpolationmode  sample-hold
attr source  receptionStateChanged
attr title  "Radio reception state, count"
scalar scenarioPRJP1.node[1].wlan[0].radio 	radioMode:count 	46786
attr interpolationmode  sample-hold
attr source  radioModeChanged
attr title  "Radio mode, count"
statistic scenarioPRJP1.node[1].wlan[0].radio 	symbolErrorRate:histogram
field count 0
field mean nan
field stddev nan
field sum 0
field sqrsum 0
field min nan
field max nan
attr source  symbolErrorRate
attr title  "Symbol error rate, histogram"
bin	-INF	0
bin	-0.5	0
bin	-0.46666666666667	0
bin	-0.43333333333333	0
bin	-0.4	0
bin	-0.36666666666667	0
bin	-0.33333333333333	0
bin	-0.3	0
bin	-0.26666666666667	0
bin	-0.23333333333333	0
bin	-0.2	0
bin	-0.16666666666667	0
bin	-0.13333333333333	0
bin	-0.1	0
bin	-0.066666666666667	0
bin	-0.033333333333333	0
bin	0	0
bin	0.033333333333333	0
bin	0.066666666666667	0
bin	0.1	0
bin	0.13333333333333	0
bin	0.16666666666667	0
bin	0.2	0
bin	0.23333333333333	0
bin	0.26666666666667	0
bin	0.3	0
bin	0.33333333333333	0
bin	0.36666666666667	0
bin	0.4	0
bin	0.43333333333333	0
bin	0.46666666666667	0
bin	0.5	0
statistic scenarioPRJP1.node[1].wlan[0].radio 	bitErrorRate:histogram
field count 0
field mean nan
field stddev nan
field sum 0
field sqrsum 0
field min nan
field max nan
attr source  bitErrorRate
attr title  "Bit error rate, histogram"
bin	-INF	0
bin	-0.5	0
bin	-0.46666666666667	0
bin	-0.43333333333333	0
bin	-0.4	0
bin	-0.36666666666667	0
bin	-0.33333333333333	0
bin	-0.3	0
bin	-0.26666666666667	0
bin	-0.23333333333333	0
bin	-0.2	0
bin	-0.16666666666667	0
bin	-0.13333333333333	0
bin	-0.1	0
bin	-0.066666666666667	0
bin	-0.033333333333333	0
bin	0	0
bin	0.033333333333333	0
bin	0.066666666666667	0
bin	0.1	0
bin	0.13333333333333	0
bin	0.16666666666667	0
bin	0.2	0
bin	0.23333333333333	0
bin	0.26666666666667	0
bin	0.3	0
bin	0.33333333333333	0
bin	0.36666666666667	0
bin	0.4	0
bin	0.43333333333333	0
bin	0.46666666666667	0
bin	0.5	0
statistic scenarioPRJP1.node[1].wlan[0].radio 	packetErrorRate:histogram
field count 125422
field mean 0.07623232660094
field stddev 0.25859433486161
field sum 9561.210866943
field sqrsum 9115.9048059637
field min 0
field max 1
attr source  packetErrorRate
attr title  "Packet error rate, histogram"
bin	-INF	0
bin	-0.0016160873801307	0
bin	-0.0014006090627799	0
bin	-0.0011851307454292	0
bin	-0.00096965242807842	0
bin	-0.00075417411072766	0
bin	-0.0005386957933769	0
bin	-0.00032321747602614	0
bin	-0.00010773915867538	109635
bin	0.00010773915867538	805
bin	0.00032321747602614	378
bin	0.0005386957933769	259
bin	0.00075417411072766	175
bin	0.00096965242807842	128
bin	0.0011851307454292	118
bin	0.0014006090627799	98
bin	0.0016160873801307	99
bin	0.0018315656974815	94
bin	0.0020470440148322	70
bin	0.002262522332183	70
bin	0.0024780006495337	66
bin	0.0026934789668845	57
bin	0.0029089572842352	57
bin	0.003124435601586	54
bin	0.0033399139189368	57
bin	0.0035553922362875	44
bin	0.0037708705536383	33
bin	0.003986348870989	48
bin	0.0042018271883398	27
bin	0.0044173055056906	34
bin	0.0046327838230413	34
bin	0.0048482621403921	12982
statistic scenarioPRJP1.node[1].wlan[0].radio 	minSNIR:histogram
field count 125422
field mean 12941.059490892
field stddev 71942.728531531
field sum 1623093563.4666
field sqrsum 6.7015306728969e+14
field min 0.00016829142031213
field max 1000437.7278179
attr source  minSNIR
attr title  "Min SNIR, histogram"
bin	-INF	0
bin	-35186.137279151	0
bin	-30494.305792556	0
bin	-25802.47430596	0
bin	-21110.642819365	0
bin	-16418.811332769	0
bin	-11726.979846174	0
bin	-7035.1483595786	0
bin	-2343.3168729832	102108
bin	2348.5146136122	7404
bin	7040.3461002076	2961
bin	11732.177586803	2845
bin	16424.009073398	1507
bin	21115.840559994	992
bin	25807.672046589	540
bin	30499.503533185	380
bin	35191.33501978	346
bin	39883.166506375	514
bin	44574.997992971	297
bin	49266.829479566	246
bin	53958.660966162	215
bin	58650.492452757	216
bin	63342.323939352	162
bin	68034.155425948	169
bin	72725.986912543	170
bin	77417.818399139	167
bin	82109.649885734	163
bin	86801.481372329	123
bin	91493.312858925	99
bin	96185.14434552	84
bin	100876.97583212	114
bin	105568.80731871	3600
scalar scenarioPRJP1.node[1].lo0.lo 	droppedPkBitError:count 	0
attr interpolationmode  none
attr source  dropPkBitError
attr title  "packets dropped/bit error, count"
scalar scenarioPRJP1.node[1].lo0.lo 	droppedPkBitError:sum(packetBytes) 	0
attr interpolationmode  none
attr source  dropPkBitError
attr title  "packets dropped/bit error, sum(packetBytes)"
scalar scenarioPRJP1.node[1].lo0.lo 	rcvdPkFromHL:count 	0
attr interpolationmode  none
attr source  packetReceivedFromUpper
attr title  "packets received from higher layer, count"
scalar scenarioPRJP1.node[1].lo0.lo 	rcvdPkFromHL:sum(packetBytes) 	0
attr interpolationmode  none
attr source  packetReceivedFromUpper
attr title  "packets received from higher layer, sum(packetBytes)"
scalar scenarioPRJP1.node[1].lo0.lo 	passedUpPk:count 	0
attr interpolationmode  none
attr source  packetSentToUpper
attr title  "packets passed to higher layer, count"
scalar scenarioPRJP1.node[1].lo0.lo 	passedUpPk:sum(packetBytes) 	0
attr interpolationmode  none
attr source  packetSentToUpper
attr title  "packets passed to higher layer, sum(packetBytes)"
scalar scenarioPRJP1.node[21].app 	"Total sent" 	2596
scalar scenarioPRJP1.node[21].app 	"Total received" 	184
scalar scenarioPRJP1.node[21].app 	"Total deleted" 	94
scalar scenarioPRJP1.node[21].app 	dropPk:count 	94
attr interpolationmode  none
attr source  dropPk
attr title  "packets dropped, count"
scalar scenarioPRJP1.node[21].app 	dropPk:sum(packetBytes) 	48128
attr interpolationmode  none
attr source  dropPk
attr title  "packets dropped, sum(packetBytes)"
scalar scenarioPRJP1.node[21].app 	outOfOrderPk:count 	22
attr interpolationmode  none
attr source  outOfOrderPk
attr title  "packets received out of order, count"
scalar scenarioPRJP1.node[21].app 	outOfOrderPk:sum(packetBytes) 	11264
attr interpolationmode  none
attr source  outOfOrderPk
attr title  "packets received out of order, sum(packetBytes)"
scalar scenarioPRJP1.node[21].app 	rcvdPk:count 	184
attr interpolationmode  none
attr source  rcvdPk
attr title  "packets received, count"
scalar scenarioPRJP1.node[21].app 	rcvdPk:sum(packetBytes) 	94208
attr interpolationmode  none
attr source  rcvdPk
attr title  "packets received, sum(packetBytes)"
statistic scenarioPRJP1.node[21].app 	endToEndDelay:histogram
field count 184
field mean 1.5566370025011
field stddev 4.0958588947464
field sum 286.4212084602
field sqrsum 3515.8728470684
field min 0.000945091524
field max 19.257920930415
attr interpolationmode  none
attr source  messageAge(rcvdPk)
attr title  "delay, histogram"
attr unit  s
bin	-INF	0
bin	-9.627542712324	0
bin	-8.3437443282023	0
bin	-7.0599459440805	0
bin	-5.7761475599588	0
bin	-4.4923491758371	0
bin	-3.2085507917153	0
bin	-1.9247524075936	0
bin	-0.64095402347187	150
bin	0.64284436064987	7
bin	1.9266427447716	2
bin	3.2104411288933	3
bin	4.4942395130151	2
bin	5.7780378971368	0
bin	7.0618362812585	4
bin	8.3456346653803	3
bin	9.629433049502	4
bin	10.913231433624	1
bin	12.197029817745	0
bin	13.480828201867	2
bin	14.764626585989	1
bin	16.048424970111	0
bin	17.332223354232	3
bin	18.616021738354	2
bin	19.899820122476	0
bin	21.183618506598	0
bin	22.467416890719	0
bin	23.751215274841	0
bin	25.035013658963	0
bin	26.318812043085	0
bin	27.602610427206	0
bin	28.886408811328	0
scalar scenarioPRJP1.node[21].app 	sentPk:count 	2596
attr interpolationmode  none
attr source  sentPk
attr title  "packets sent, count"
scalar scenarioPRJP1.node[21].app 	sentPk:sum(packetBytes) 	1329152
attr interpolationmode  none
attr source  sentPk
attr title  "packets sent, sum(packetBytes)"
scalar scenarioPRJP1.node[21].udp 	droppedPkBadChecksum:count 	0
attr interpolationmode  none
attr title  "packets dropped (checksum error), count"
scalar scenarioPRJP1.node[21].udp 	droppedPkWrongPort:count 	0
attr interpolationmode  none
attr title  "packets dropped (wrong port), count"
scalar scenarioPRJP1.node[21].udp 	passedUpPk:count 	300
attr interpolationmode  none
attr title  "packets passed up, count"
scalar scenarioPRJP1.node[21].udp 	rcvdPk:count 	300
attr interpolationmode  none
attr source  rcvdPk
attr title  "packets received, count"
scalar scenarioPRJP1.node[21].udp 	rcvdPk:sum(packetBytes) 	156000
attr interpolationmode  none
attr source  rcvdPk
attr title  "packets received, sum(packetBytes)"
scalar scenarioPRJP1.node[21].udp 	sentPk:count 	2596
attr interpolationmode  none
attr source  sentPk
attr title  "packets sent, count"
scalar scenarioPRJP1.node[21].udp 	sentPk:sum(packetBytes) 	1349920
attr interpolationmode  none
attr source  sentPk
attr title  "packets sent, sum(packetBytes)"
scalar scenarioPRJP1.node[21].networkLayer.arp 	failedARPResolution:count 	7
attr title  "ARP failed resolutions, count"
scalar scenarioPRJP1.node[21].networkLayer.arp 	completedARPResolution:count 	514
attr title  "ARP completed resolutions, count"
scalar scenarioPRJP1.node[21].networkLayer.arp 	initiatedARPResolution:count 	64
attr title  "ARP initiated resolutions, count"
scalar scenarioPRJP1.node[21].networkLayer.arp 	sentReply:count 	60
attr title  "ARP replies sent, count"
scalar scenarioPRJP1.node[21].networkLayer.arp 	sentReq:count 	90
attr title  "ARP request sent, count"
scalar scenarioPRJP1.node[21].mobility 	startTime 	2.5
scalar scenarioPRJP1.node[21].mobility 	totalTime 	947.4
scalar scenarioPRJP1.node[21].mobility 	stopTime 	950
scalar scenarioPRJP1.node[21].mobility 	minSpeed 	2.4755401043125e-13
scalar scenarioPRJP1.node[21].mobility 	maxSpeed 	20.590840833378
scalar scenarioPRJP1.node[21].mobility 	totalDistance 	8738.4291382964
scalar scenarioPRJP1.node[21].mobility 	totalCO2Emission 	2672.3505476451
scalar scenarioPRJP1.node[21].wlan[0].mgmt 	dataQueueLen:max 	17
attr interpolationmode  sample-hold
attr title  "data queue length, max"
scalar scenarioPRJP1.node[21].wlan[0].mgmt 	dataQueueLen:timeavg 	0
attr interpolationmode  sample-hold
attr title  "data queue length, timeavg"
scalar scenarioPRJP1.node[21].wlan[0].mgmt 	dropPkByQueue:count 	0
attr interpolationmode  none
attr source  dropPkByQueue
attr title  "packets dropped by queue, count"
scalar scenarioPRJP1.node[21].wlan[0].mgmt 	dropPkByQueue:sum(packetBytes) 	0
attr interpolationmode  none
attr source  dropPkByQueue
attr title  "packets dropped by queue, sum(packetBytes)"
scalar scenarioPRJP1.node[21].wlan[0].mac 	"number of received packets" 	5380
scalar scenarioPRJP1.node[21].wlan[0].mac 	"number of collisions" 	18840
scalar scenarioPRJP1.node[21].wlan[0].mac 	"number of internal collisions" 	0
scalar scenarioPRJP1.node[21].wlan[0].mac 	"number of retry for AC 0" 	7086
scalar scenarioPRJP1.node[21].wlan[0].mac 	"number of retry for AC 1" 	0
scalar scenarioPRJP1.node[21].wlan[0].mac 	"number of retry for AC 2" 	0
scalar scenarioPRJP1.node[21].wlan[0].mac 	"number of retry for AC 3" 	0
scalar scenarioPRJP1.node[21].wlan[0].mac 	"sent and received bits" 	13590560
scalar scenarioPRJP1.node[21].wlan[0].mac 	"sent packet within AC 0" 	1661
scalar scenarioPRJP1.node[21].wlan[0].mac 	"sent packet within AC 1" 	1
scalar scenarioPRJP1.node[21].wlan[0].mac 	"sent packet within AC 2" 	0
scalar scenarioPRJP1.node[21].wlan[0].mac 	"sent packet within AC 3" 	0
scalar scenarioPRJP1.node[21].wlan[0].mac 	"sent in TXOP " 	0
scalar scenarioPRJP1.node[21].wlan[0].mac 	"sentWithoutRetry AC 0" 	1587
scalar scenarioPRJP1.node[21].wlan[0].mac 	"sentWithoutRetry AC 1" 	1
scalar scenarioPRJP1.node[21].wlan[0].mac 	"sentWithoutRetry AC 2" 	0
scalar scenarioPRJP1.node[21].wlan[0].mac 	"sentWithoutRetry AC 3" 	0
scalar scenarioPRJP1.node[21].wlan[0].mac 	"numGivenUp AC 0" 	1163
scalar scenarioPRJP1.node[21].wlan[0].mac 	"numGivenUp AC 1" 	0
scalar scenarioPRJP1.node[21].wlan[0].mac 	"numGivenUp AC 2" 	0
scalar scenarioPRJP1.node[21].wlan[0].mac 	"numGivenUp AC 3" 	0
scalar scenarioPRJP1.node[21].wlan[0].mac 	"numDropped AC 0" 	0
scalar scenarioPRJP1.node[21].wlan[0].mac 	"numDropped AC 1" 	0
scalar scenarioPRJP1.node[21].wlan[0].mac 	"numDropped AC 2" 	0
scalar scenarioPRJP1.node[21].wlan[0].mac 	"numDropped AC 3" 	0
scalar scenarioPRJP1.node[21].wlan[0].mac 	rcvdPkFromLL:count 	145848
attr interpolationmode  none
attr source  packetReceivedFromLower
attr title  "packets received from lower layer, count"
scalar scenarioPRJP1.node[21].wlan[0].mac 	rcvdPkFromLL:sum(packetBytes) 	26852490
attr interpolationmode  none
attr source  packetReceivedFromLower
[...]
bin	-INF	0
bin	2	0
bin	3	1
bin	4	0
scalar scenarioPRJP1.node[55].wlan[0].radio 	transmissionState:count 	86092
attr interpolationmode  sample-hold
attr source  transmissionStateChanged
attr title  "Radio transmission state, count"
scalar scenarioPRJP1.node[55].wlan[0].radio 	receptionState:count 	275378
attr interpolationmode  sample-hold
attr source  receptionStateChanged
attr title  "Radio reception state, count"
scalar scenarioPRJP1.node[55].wlan[0].radio 	radioMode:count 	43048
attr interpolationmode  sample-hold
attr source  radioModeChanged
attr title  "Radio mode, count"
statistic scenarioPRJP1.node[55].wlan[0].radio 	symbolErrorRate:histogram
field count 0
field mean nan
field stddev nan
field sum 0
field sqrsum 0
field min nan
field max nan
attr source  symbolErrorRate
attr title  "Symbol error rate, histogram"
bin	-INF	0
bin	-0.5	0
bin	-0.46666666666667	0
bin	-0.43333333333333	0
bin	-0.4	0
bin	-0.36666666666667	0
bin	-0.33333333333333	0
bin	-0.3	0
bin	-0.26666666666667	0
bin	-0.23333333333333	0
bin	-0.2	0
bin	-0.16666666666667	0
bin	-0.13333333333333	0
bin	-0.1	0
bin	-0.066666666666667	0
bin	-0.033333333333333	0
bin	0	0
bin	0.033333333333333	0
bin	0.066666666666667	0
bin	0.1	0
bin	0.13333333333333	0
bin	0.16666666666667	0
bin	0.2	0
bin	0.23333333333333	0
bin	0.26666666666667	0
bin	0.3	0
bin	0.33333333333333	0
bin	0.36666666666667	0
bin	0.4	0
bin	0.43333333333333	0
bin	0.46666666666667	0
bin	0.5	0
statistic scenarioPRJP1.node[55].wlan[0].radio 	bitErrorRate:histogram
field count 0
field mean nan
field stddev nan
field sum 0
field sqrsum 0
field min nan
field max nan
attr source  bitErrorRate
attr title  "Bit error rate, histogram"
bin	-INF	0
bin	-0.5	0
bin	-0.46666666666667	0
bin	-0.43333333333333	0
bin	-0.4	0
bin	-0.36666666666667	0
bin	-0.33333333333333	0
bin	-0.3	0
bin	-0.26666666666667	0
bin	-0.23333333333333	0
bin	-0.2	0
bin	-0.16666666666667	0
bin	-0.13333333333333	0
bin	-0.1	0
bin	-0.066666666666667	0
bin	-0.033333333333333	0
bin	0	0
bin	0.033333333333333	0
bin	0.066666666666667	0
bin	0.1	0
bin	0.13333333333333	0
bin	0.16666666666667	0
bin	0.2	0
bin	0.23333333333333	0
bin	0.26666666666667	0
bin	0.3	0
bin	0.33333333333333	0
bin	0.36666666666667	0
bin	0.4	0
bin	0.43333333333333	0
bin	0.46666666666667	0
bin	0.5	0
statistic scenarioPRJP1.node[55].wlan[0].radio 	packetErrorRate:histogram
field count 115476
field mean 0.080740227306394
field stddev 0.26583971500773
field sum 9323.5584884332
field sqrsum 8913.4915585161
field min 0
field max 1
attr source  packetErrorRate
attr title  "Packet error rate, histogram"
bin	-INF	0
bin	-1.0793695415789e-05	0
bin	-9.3545360270175e-06	0
bin	-7.9153766382456e-06	0
bin	-6.4762172494737e-06	0
bin	-5.0370578607017e-06	0
bin	-3.5978984719298e-06	0
bin	-2.1587390831579e-06	0
bin	-7.1957969438596e-07	98033
bin	7.1957969438596e-07	590
bin	2.1587390831579e-06	255
bin	3.5978984719298e-06	196
bin	5.0370578607017e-06	134
bin	6.4762172494737e-06	118
bin	7.9153766382456e-06	94
bin	9.3545360270175e-06	82
bin	1.0793695415789e-05	64
bin	1.2232854804561e-05	58
bin	1.3672014193333e-05	53
bin	1.5111173582105e-05	57
bin	1.6550332970877e-05	54
bin	1.7989492359649e-05	30
bin	1.9428651748421e-05	47
bin	2.0867811137193e-05	32
bin	2.2306970525965e-05	38
bin	2.3746129914737e-05	37
bin	2.5185289303509e-05	29
bin	2.6624448692281e-05	20
bin	2.8063608081053e-05	32
bin	2.9502767469824e-05	27
bin	3.0941926858596e-05	28
bin	3.2381086247368e-05	15368
statistic scenarioPRJP1.node[55].wlan[0].radio 	minSNIR:histogram
field count 115476
field mean 19790.369960777
field stddev 88398.604541488
field sum 2285312761.5907
field sqrsum 9.4758501159975e+14
field min 0.00016732231248331
field max 807460.93540415
attr source  minSNIR
attr title  "Min SNIR, histogram"
bin	-INF	0
bin	-7720.0536457188	0
bin	-6690.2529839144	0
bin	-5660.4523221101	0
bin	-4630.6516603057	0
bin	-3600.8509985013	0
bin	-2571.050336697	0
bin	-1541.2496748926	0
bin	-511.4490130882	74654
bin	518.35164871617	9602
bin	1548.1523105205	4024
bin	2577.9529723249	2664
bin	3607.7536341293	1774
bin	4637.5542959337	1176
bin	5667.354957738	893
bin	6697.1556195424	833
bin	7726.9562813468	858
bin	8756.7569431512	582
bin	9786.5576049555	630
bin	10816.35826676	752
bin	11846.158928564	861
bin	12875.959590369	763
bin	13905.760252173	612
bin	14935.560913977	379
bin	15965.361575782	476
bin	16995.162237586	361
bin	18024.962899391	427
bin	19054.763561195	505
bin	20084.564222999	345
bin	21114.364884804	463
bin	22144.165546608	251
bin	23173.966208412	11591
scalar scenarioPRJP1.node[55].lo0.lo 	droppedPkBitError:count 	0
attr interpolationmode  none
attr source  dropPkBitError
attr title  "packets dropped/bit error, count"
scalar scenarioPRJP1.node[55].lo0.lo 	droppedPkBitError:sum(packetBytes) 	0
attr interpolationmode  none
attr source  dropPkBitError
attr title  "packets dropped/bit error, sum(packetBytes)"
scalar scenarioPRJP1.node[55].lo0.lo 	rcvdPkFromHL:count 	0
attr interpolationmode  none
attr source  packetReceivedFromUpper
attr title  "packets received from higher layer, count"
scalar scenarioPRJP1.node[55].lo0.lo 	rcvdPkFromHL:sum(packetBytes) 	0
attr interpolationmode  none
attr source  packetReceivedFromUpper
attr title  "packets received from higher layer, sum(packetBytes)"
scalar scenarioPRJP1.node[55].lo0.lo 	passedUpPk:count 	0
attr interpolationmode  none
attr source  packetSentToUpper
attr title  "packets passed to higher layer, count"
scalar scenarioPRJP1.node[55].lo0.lo 	passedUpPk:sum(packetBytes) 	0
attr interpolationmode  none
attr source  packetSentToUpper
attr title  "packets passed to higher layer, sum(packetBytes)"
scalar scenarioPRJP1.node[71].app 	"Total sent" 	2614
scalar scenarioPRJP1.node[71].app 	"Total received" 	149
scalar scenarioPRJP1.node[71].app 	"Total deleted" 	116
scalar scenarioPRJP1.node[71].app 	dropPk:count 	116
attr interpolationmode  none
attr source  dropPk
attr title  "packets dropped, count"
scalar scenarioPRJP1.node[71].app 	dropPk:sum(packetBytes) 	59392
attr interpolationmode  none
attr source  dropPk
attr title  "packets dropped, sum(packetBytes)"
scalar scenarioPRJP1.node[71].app 	outOfOrderPk:count 	37
attr interpolationmode  none
attr source  outOfOrderPk
attr title  "packets received out of order, count"
scalar scenarioPRJP1.node[71].app 	outOfOrderPk:sum(packetBytes) 	18944
attr interpolationmode  none
attr source  outOfOrderPk
attr title  "packets received out of order, sum(packetBytes)"
scalar scenarioPRJP1.node[71].app 	rcvdPk:count 	149
attr interpolationmode  none
attr source  rcvdPk
attr title  "packets received, count"
scalar scenarioPRJP1.node[71].app 	rcvdPk:sum(packetBytes) 	76288
attr interpolationmode  none
attr source  rcvdPk
attr title  "packets received, sum(packetBytes)"
statistic scenarioPRJP1.node[71].app 	endToEndDelay:histogram
field count 149
field mean 1.7275239461938
field stddev 3.8952758078461
field sum 257.40106798288
field sqrsum 2690.2962043566
field min 0.000945122479
field max 17.787029943395
attr interpolationmode  none
attr source  messageAge(rcvdPk)
attr title  "delay, histogram"
attr unit  s
bin	-INF	0
bin	-8.5978621329105	0
bin	-7.4513544988586	0
bin	-6.3048468648066	0
bin	-5.1583392307547	0
bin	-4.0118315967028	0
bin	-2.8653239626508	0
bin	-1.7188163285989	0
bin	-0.57230869454697	116
bin	0.57419893950497	4
bin	1.7207065735569	1
bin	2.8672142076088	2
bin	4.0137218416608	2
bin	5.1602294757127	4
bin	6.3067371097646	3
bin	7.4532447438166	5
bin	8.5997523778685	2
bin	9.7462600119204	3
bin	10.892767645972	1
bin	12.039275280024	1
bin	13.185782914076	0
bin	14.332290548128	2
bin	15.47879818218	1
bin	16.625305816232	1
bin	17.771813450284	1
bin	18.918321084336	0
bin	20.064828718388	0
bin	21.21133635244	0
bin	22.357843986492	0
bin	23.504351620544	0
bin	24.650859254596	0
bin	25.797366888648	0
scalar scenarioPRJP1.node[71].app 	sentPk:count 	2614
attr interpolationmode  none
attr source  sentPk
attr title  "packets sent, count"
scalar scenarioPRJP1.node[71].app 	sentPk:sum(packetBytes) 	1338368
attr interpolationmode  none
attr source  sentPk
attr title  "packets sent, sum(packetBytes)"
scalar scenarioPRJP1.node[71].udp 	droppedPkBadChecksum:count 	0
attr interpolationmode  none
attr title  "packets dropped (checksum error), count"
scalar scenarioPRJP1.node[71].udp 	droppedPkWrongPort:count 	0
attr interpolationmode  none
attr title  "packets dropped (wrong port), count"
scalar scenarioPRJP1.node[71].udp 	passedUpPk:count 	302
attr interpolationmode  none
attr title  "packets passed up, count"
scalar scenarioPRJP1.node[71].udp 	rcvdPk:count 	302
attr interpolationmode  none
attr source  rcvdPk
attr title  "packets received, count"
scalar scenarioPRJP1.node[71].udp 	rcvdPk:sum(packetBytes) 	157040
attr interpolationmode  none
attr source  rcvdPk
attr title  "packets received, sum(packetBytes)"
scalar scenarioPRJP1.node[71].udp 	sentPk:count 	2614
attr interpolationmode  none
attr source  sentPk
attr title  "packets sent, count"
scalar scenarioPRJP1.node[71].udp 	sentPk:sum(packetBytes) 	1359280
attr interpolationmode  none
attr source  sentPk
attr title  "packets sent, sum(packetBytes)"
scalar scenarioPRJP1.node[71].networkLayer.arp 	failedARPResolution:count 	4
attr title  "ARP failed resolutions, count"
scalar scenarioPRJP1.node[71].networkLayer.arp 	completedARPResolution:count 	394
attr title  "ARP completed resolutions, count"
scalar scenarioPRJP1.node[71].networkLayer.arp 	initiatedARPResolution:count 	66
attr title  "ARP initiated resolutions, count"
scalar scenarioPRJP1.node[71].networkLayer.arp 	sentReply:count 	43
attr title  "ARP replies sent, count"
scalar scenarioPRJP1.node[71].networkLayer.arp 	sentReq:count 	84
attr title  "ARP request sent, count"
scalar scenarioPRJP1.node[71].mobility 	startTime 	7.3
scalar scenarioPRJP1.node[71].mobility 	totalTime 	942.6
scalar scenarioPRJP1.node[71].mobility 	stopTime 	950
scalar scenarioPRJP1.node[71].mobility 	minSpeed 	2.4757321456868e-13
scalar scenarioPRJP1.node[71].mobility 	maxSpeed 	20.716753665853
scalar scenarioPRJP1.node[71].mobility 	totalDistance 	9341.5522935561
scalar scenarioPRJP1.node[71].mobility 	totalCO2Emission 	2696.6007917921
scalar scenarioPRJP1.node[71].wlan[0].mgmt 	dataQueueLen:max 	26
attr interpolationmode  sample-hold
attr title  "data queue length, max"
scalar scenarioPRJP1.node[71].wlan[0].mgmt 	dataQueueLen:timeavg 	0
attr interpolationmode  sample-hold
attr title  "data queue length, timeavg"
scalar scenarioPRJP1.node[71].wlan[0].mgmt 	dropPkByQueue:count 	0
attr interpolationmode  none
attr source  dropPkByQueue
attr title  "packets dropped by queue, count"
scalar scenarioPRJP1.node[71].wlan[0].mgmt 	dropPkByQueue:sum(packetBytes) 	0
attr interpolationmode  none
attr source  dropPkByQueue
attr title  "packets dropped by queue, sum(packetBytes)"
scalar scenarioPRJP1.node[71].wlan[0].mac 	"number of received packets" 	5759
scalar scenarioPRJP1.node[71].wlan[0].mac 	"number of collisions" 	11500
scalar scenarioPRJP1.node[71].wlan[0].mac 	"number of internal collisions" 	0
scalar scenarioPRJP1.node[71].wlan[0].mac 	"number of retry for AC 0" 	5859
scalar scenarioPRJP1.node[71].wlan[0].mac 	"number of retry for AC 1" 	0
scalar scenarioPRJP1.node[71].wlan[0].mac 	"number of retry for AC 2" 	0
scalar scenarioPRJP1.node[71].wlan[0].mac 	"number of retry for AC 3" 	0
scalar scenarioPRJP1.node[71].wlan[0].mac 	"sent and received bits" 	12958912
scalar scenarioPRJP1.node[71].wlan[0].mac 	"sent packet within AC 0" 	2502
scalar scenarioPRJP1.node[71].wlan[0].mac 	"sent packet within AC 1" 	0
scalar scenarioPRJP1.node[71].wlan[0].mac 	"sent packet within AC 2" 	0
scalar scenarioPRJP1.node[71].wlan[0].mac 	"sent packet within AC 3" 	0
scalar scenarioPRJP1.node[71].wlan[0].mac 	"sent in TXOP " 	0
scalar scenarioPRJP1.node[71].wlan[0].mac 	"sentWithoutRetry AC 0" 	2418
scalar scenarioPRJP1.node[71].wlan[0].mac 	"sentWithoutRetry AC 1" 	0
scalar scenarioPRJP1.node[71].wlan[0].mac 	"sentWithoutRetry AC 2" 	0
scalar scenarioPRJP1.node[71].wlan[0].mac 	"sentWithoutRetry AC 3" 	0
scalar scenarioPRJP1.node[71].wlan[0].mac 	"numGivenUp AC 0" 	949
scalar scenarioPRJP1.node[71].wlan[0].mac 	"numGivenUp AC 1" 	0
scalar scenarioPRJP1.node[71].wlan[0].mac 	"numGivenUp AC 2" 	0
scalar scenarioPRJP1.node[71].wlan[0].mac 	"numGivenUp AC 3" 	0
scalar scenarioPRJP1.node[71].wlan[0].mac 	"numDropped AC 0" 	0
scalar scenarioPRJP1.node[71].wlan[0].mac 	"numDropped AC 1" 	0
scalar scenarioPRJP1.node[71].wlan[0].mac 	"numDropped AC 2" 	0
scalar scenarioPRJP1.node[71].wlan[0].mac 	"numDropped AC 3" 	0
scalar scenarioPRJP1.node[71].wlan[0].mac 	rcvdPkFromLL:count 	108433
attr interpolationmode  none
attr source  packetReceivedFromLower
attr title  "packets received from lower layer, count"
scalar scenarioPRJP1.node[71].wlan[0].mac 	rcvdPkFromLL:sum(packetBytes) 	20195238
attr interpolationmode  none
attr source  packetReceivedFromLower
attr title  "packets received from lower layer, sum(packetBytes)"
scalar scenarioPRJP1.node[71].wlan[0].mac 	sentDownPk:count 	28674
attr interpolationmode  none
attr source  packetSentToLower
attr title  "packets sent to lower layer, count"
scalar scenarioPRJP1.node[71].wlan[0].mac 	sentDownPk:sum(packetBytes) 	4696662
attr interpolationmode  none
attr source  packetSentToLower
attr title  "packets sent to lower layer, sum(packetBytes)"
scalar scenarioPRJP1.node[71].wlan[0].mac 	rcvdPkFromHL:count 	17056
attr interpolationmode  none
attr source  packetReceivedFromUpper
attr title  "packets received from higher layer, count"
scalar scenarioPRJP1.node[71].wlan[0].mac 	rcvdPkFromHL:sum(packetBytes) 	2038896
attr interpolationmode  none
attr source  packetReceivedFromUpper
attr title  "packets received from higher layer, sum(packetBytes)"
scalar scenarioPRJP1.node[71].wlan[0].mac 	passedUpPk:count 	51851
attr interpolationmode  none
attr source  packetSentToUpper
attr title  "packets passed to higher layer, count"
scalar scenarioPRJP1.node[71].wlan[0].mac 	passedUpPk:sum(packetBytes) 	5039300
attr interpolationmode  none
attr source  packetSentToUpper
attr title  "packets passed to higher layer, sum(packetBytes)"
statistic scenarioPRJP1.node[71].wlan[0].radio 	radioChannel:histogram
field count 1
field mean 3
field stddev nan
field sum 3
field sqrsum 9
field min 3
field max 3
attr interpolationmode  sample-hold
attr source  radioChannelChanged
attr title  "Radio channel, histogram"
bin	-INF	0
bin	2	0
bin	3	1
bin	4	0
scalar scenarioPRJP1.node[71].wlan[0].radio 	transmissionState:count 	114696
attr interpolationmode  sample-hold
attr source  transmissionStateChanged
attr title  "Radio transmission state, count"
scalar scenarioPRJP1.node[71].wlan[0].radio 	receptionState:count 	275277
attr interpolationmode  sample-hold
attr source  receptionStateChanged
attr title  "Radio reception state, count"
scalar scenarioPRJP1.node[71].wlan[0].radio 	radioMode:count 	57350
attr interpolationmode  sample-hold
attr source  radioModeChanged
attr title  "Radio mode, count"
statistic scenarioPRJP1.node[71].wlan[0].radio 	symbolErrorRate:histogram
field count 0
field mean nan
field stddev nan
field sum 0
field sqrsum 0
field min nan
field max nan
attr source  symbolErrorRate
attr title  "Symbol error rate, histogram"
bin	-INF	0
bin	-0.5	0
bin	-0.46666666666667	0
bin	-0.43333333333333	0
bin	-0.4	0
bin	-0.36666666666667	0
bin	-0.33333333333333	0
bin	-0.3	0
bin	-0.26666666666667	0
bin	-0.23333333333333	0
bin	-0.2	0
bin	-0.16666666666667	0
bin	-0.13333333333333	0
bin	-0.1	0
bin	-0.066666666666667	0
bin	-0.033333333333333	0
bin	0	0
bin	0.033333333333333	0
bin	0.066666666666667	0
bin	0.1	0
bin	0.13333333333333	0
bin	0.16666666666667	0
bin	0.2	0
bin	0.23333333333333	0
bin	0.26666666666667	0
bin	0.3	0
bin	0.33333333333333	0
bin	0.36666666666667	0
bin	0.4	0
bin	0.43333333333333	0
bin	0.46666666666667	0
bin	0.5	0
statistic scenarioPRJP1.node[71].wlan[0].radio 	bitErrorRate:histogram
field count 0
field mean nan
field stddev nan
field sum 0
field sqrsum 0
field min nan
field max nan
attr source  bitErrorRate
attr title  "Bit error rate, histogram"
bin	-INF	0
bin	-0.5	0
bin	-0.46666666666667	0
bin	-0.43333333333333	0
bin	-0.4	0
bin	-0.36666666666667	0
bin	-0.33333333333333	0
bin	-0.3	0
bin	-0.26666666666667	0
bin	-0.23333333333333	0
bin	-0.2	0
bin	-0.16666666666667	0
bin	-0.13333333333333	0
bin	-0.1	0
bin	-0.066666666666667	0
bin	-0.033333333333333	0
bin	0	0
bin	0.033333333333333	0
bin	0.066666666666667	0
bin	0.1	0
bin	0.13333333333333	0
bin	0.16666666666667	0
bin	0.2	0
bin	0.23333333333333	0
bin	0.26666666666667	0
bin	0.3	0
bin	0.33333333333333	0
bin	0.36666666666667	0
bin	0.4	0
bin	0.43333333333333	0
bin	0.46666666666667	0
bin	0.5	0
statistic scenarioPRJP1.node[71].wlan[0].radio 	packetErrorRate:histogram
field count 108433
field mean 0.092016895374641
field stddev 0.28079646445728
field sum 9977.6680161585
field sqrsum 9467.6144694336
field min 0
field max 1
attr source  packetErrorRate
attr title  "Packet error rate, histogram"
bin	-INF	0
bin	-2.6109621914516e-06	0
bin	-2.2628338992581e-06	0
bin	-1.9147056070645e-06	0
bin	-1.566577314871e-06	0
bin	-1.2184490226774e-06	0
bin	-8.7032073048388e-07	0
bin	-5.2219243829033e-07	0
bin	-1.7406414609678e-07	87469
bin	1.7406414609678e-07	691
bin	5.2219243829033e-07	305
bin	8.7032073048388e-07	246
bin	1.2184490226774e-06	157
bin	1.566577314871e-06	134
bin	1.9147056070645e-06	119
bin	2.2628338992581e-06	86
bin	2.6109621914516e-06	66
bin	2.9590904836452e-06	88
bin	3.3072187758387e-06	64
bin	3.6553470680323e-06	71
bin	4.0034753602258e-06	52
bin	4.3516036524194e-06	60
bin	4.6997319446129e-06	57
bin	5.0478602368065e-06	41
bin	5.395988529e-06	34
bin	5.7441168211936e-06	46
bin	6.0922451133871e-06	37
bin	6.4403734055807e-06	37
bin	6.7885016977742e-06	30
bin	7.1366299899678e-06	29
bin	7.4847582821613e-06	42
bin	7.8328865743549e-06	18472
statistic scenarioPRJP1.node[71].wlan[0].radio 	minSNIR:histogram
field count 108433
field mean 10847.808747479
field stddev 78025.653058723
field sum 1176260445.9153
field sqrsum 6.7289413925568e+14
field min 0.00017084236159805
field max 7916035.9056026
attr source  minSNIR
attr title  "Min SNIR, histogram"
bin	-INF	0
bin	-5221.9619724969	0
bin	-4525.2067964195	0
bin	-3828.4516203421	0
bin	-3131.6964442647	0
bin	-2434.9412681873	0
bin	-1738.1860921099	0
bin	-1041.4309160326	0
bin	-344.67573995516	79231
bin	352.07943612223	10193
bin	1048.8346121996	2971
bin	1745.589788277	1823
bin	2442.3449643544	1120
bin	3139.1001404318	781
bin	3835.8553165092	715
bin	4532.6104925866	455
bin	5229.365668664	440
bin	5926.1208447414	347
bin	6622.8760208187	334
bin	7319.6311968961	343
bin	8016.3863729735	342
bin	8713.1415490509	249
bin	9409.8967251283	275
bin	10106.651901206	234
bin	10803.407077283	297
bin	11500.16225336	221
bin	12196.917429438	263
bin	12893.672605515	365
bin	13590.427781593	144
bin	14287.18295767	237
bin	14983.938133747	160
bin	15680.693309825	6893
scalar scenarioPRJP1.node[71].lo0.lo 	droppedPkBitError:count 	0
attr interpolationmode  none
attr source  dropPkBitError
attr title  "packets dropped/bit error, count"
scalar scenarioPRJP1.node[71].lo0.lo 	droppedPkBitError:sum(packetBytes) 	0
attr interpolationmode  none
attr source  dropPkBitError
attr title  "packets dropped/bit error, sum(packetBytes)"
scalar scenarioPRJP1.node[71].lo0.lo 	rcvdPkFromHL:count 	0
attr interpolationmode  none
attr source  packetReceivedFromUpper
attr title  "packets received from higher layer, count"
scalar scenarioPRJP1.node[71].lo0.lo 	rcvdPkFromHL:sum(packetBytes) 	0
attr interpolationmode  none
attr source  packetReceivedFromUpper
attr title  "packets received from higher layer, sum(packetBytes)"
scalar scenarioPRJP1.node[71].lo0.lo 	passedUpPk:count 	0
attr interpolationmode  none
attr source  packetSentToUpper
attr title  "packets passed to higher layer, count"
scalar scenarioPRJP1.node[71].lo0.lo 	passedUpPk:sum(packetBytes) 	0
attr interpolationmode  none
attr source  packetSentToUpper
attr title  "packets passed to higher layer, sum(packetBytes)"
