version 2
run OLSR-ETX-LNS-10n-17-20150817-20:57:11-14299
attr configname OLSR-ETX-LNS-10n
attr datetime 20150817-20:57:11
attr experiment OLSR-ETX-LNS-10n
attr inifile omnetpp.ini
attr iterationvars ""
attr iterationvars2 $repetition=17
attr measurement ""
attr network Prj_Part1_propag.scenarioPRJP1
attr processid 14299
attr repetition 17
attr replication #17
attr resultdir results
attr runnumber 17
attr seedset 17

scalar scenarioPRJP1.radioMedium.propagation 	"Arrival computation count" 	579560
scalar scenarioPRJP1.radioMedium 	"transmission count" 	64400
scalar scenarioPRJP1.radioMedium 	"radio frame send count" 	579560
scalar scenarioPRJP1.radioMedium 	"reception computation count" 	575419
scalar scenarioPRJP1.radioMedium 	"interference computation count" 	1699213
scalar scenarioPRJP1.radioMedium 	"reception decision computation count" 	56557
scalar scenarioPRJP1.radioMedium 	"listening decision computation count" 	1086911
scalar scenarioPRJP1.radioMedium 	"reception cache hit" 	74.865749796233
attr unit  %
scalar scenarioPRJP1.radioMedium 	"interference cache hit" 	50
attr unit  %
scalar scenarioPRJP1.radioMedium 	"noise cache hit" 	0
attr unit  %
scalar scenarioPRJP1.radioMedium 	"snir cache hit" 	0
attr unit  %
scalar scenarioPRJP1.radioMedium 	"reception decision cache hit" 	0
attr unit  %
scalar scenarioPRJP1.node[0].app 	"Total sent" 	2607
scalar scenarioPRJP1.node[0].app 	"Total received" 	190
scalar scenarioPRJP1.node[0].app 	"Total deleted" 	0
scalar scenarioPRJP1.node[0].app 	dropPk:count 	0
attr interpolationmode  none
attr source  dropPk
attr title  "packets dropped, count"
scalar scenarioPRJP1.node[0].app 	dropPk:sum(packetBytes) 	0
attr interpolationmode  none
attr source  dropPk
attr title  "packets dropped, sum(packetBytes)"
scalar scenarioPRJP1.node[0].app 	outOfOrderPk:count 	0
attr interpolationmode  none
attr source  outOfOrderPk
attr title  "packets received out of order, count"
scalar scenarioPRJP1.node[0].app 	outOfOrderPk:sum(packetBytes) 	0
attr interpolationmode  none
attr source  outOfOrderPk
attr title  "packets received out of order, sum(packetBytes)"
scalar scenarioPRJP1.node[0].app 	rcvdPk:count 	190
attr interpolationmode  none
attr source  rcvdPk
attr title  "packets received, count"
scalar scenarioPRJP1.node[0].app 	rcvdPk:sum(packetBytes) 	97280
attr interpolationmode  none
attr source  rcvdPk
attr title  "packets received, sum(packetBytes)"
statistic scenarioPRJP1.node[0].app 	endToEndDelay:histogram
field count 190
field mean 0.0875139103319
field stddev 0.3855993568004
field sum 16.627642963061
field sqrsum 29.556967344663
field min 0.000945068822
field max 2.755184162688
attr interpolationmode  none
attr source  messageAge(rcvdPk)
attr title  "delay, histogram"
attr unit  s
bin	-INF	0
bin	-0.510235994358	0
bin	-0.44207849010307	0
bin	-0.37392098584813	0
bin	-0.3057634815932	0
bin	-0.23760597733827	0
bin	-0.16944847308333	0
bin	-0.1012909688284	0
bin	-0.033133464573467	176
bin	0.035024039681467	3
bin	0.1031815439364	0
bin	0.17133904819133	0
bin	0.23949655244627	1
bin	0.3076540567012	0
bin	0.37581156095613	0
bin	0.44396906521107	0
bin	0.512126569466	1
bin	0.58028407372093	0
bin	0.64844157797587	0
bin	0.7165990822308	1
bin	0.78475658648573	0
bin	0.85291409074067	0
bin	0.9210715949956	0
bin	0.98922909925053	3
bin	1.0573866035055	0
bin	1.1255441077604	1
bin	1.1937016120153	0
bin	1.2618591162703	0
bin	1.3300166205252	0
bin	1.3981741247801	0
bin	1.4663316290351	0
bin	1.53448913329	4
scalar scenarioPRJP1.node[0].app 	sentPk:count 	2607
attr interpolationmode  none
attr source  sentPk
attr title  "packets sent, count"
scalar scenarioPRJP1.node[0].app 	sentPk:sum(packetBytes) 	1334784
attr interpolationmode  none
attr source  sentPk
attr title  "packets sent, sum(packetBytes)"
scalar scenarioPRJP1.node[0].udp 	droppedPkBadChecksum:count 	0
attr interpolationmode  none
attr title  "packets dropped (checksum error), count"
scalar scenarioPRJP1.node[0].udp 	droppedPkWrongPort:count 	0
attr interpolationmode  none
attr title  "packets dropped (wrong port), count"
scalar scenarioPRJP1.node[0].udp 	passedUpPk:count 	190
attr interpolationmode  none
attr title  "packets passed up, count"
scalar scenarioPRJP1.node[0].udp 	rcvdPk:count 	190
attr interpolationmode  none
attr source  rcvdPk
attr title  "packets received, count"
scalar scenarioPRJP1.node[0].udp 	rcvdPk:sum(packetBytes) 	98800
attr interpolationmode  none
attr source  rcvdPk
attr title  "packets received, sum(packetBytes)"
scalar scenarioPRJP1.node[0].udp 	sentPk:count 	2607
attr interpolationmode  none
attr source  sentPk
attr title  "packets sent, count"
scalar scenarioPRJP1.node[0].udp 	sentPk:sum(packetBytes) 	1355640
attr interpolationmode  none
attr source  sentPk
attr title  "packets sent, sum(packetBytes)"
scalar scenarioPRJP1.node[0].networkLayer.arp 	failedARPResolution:count 	50
attr title  "ARP failed resolutions, count"
scalar scenarioPRJP1.node[0].networkLayer.arp 	completedARPResolution:count 	45
attr title  "ARP completed resolutions, count"
scalar scenarioPRJP1.node[0].networkLayer.arp 	initiatedARPResolution:count 	64
attr title  "ARP initiated resolutions, count"
scalar scenarioPRJP1.node[0].networkLayer.arp 	sentReply:count 	8
attr title  "ARP replies sent, count"
scalar scenarioPRJP1.node[0].networkLayer.arp 	sentReq:count 	176
attr title  "ARP request sent, count"
scalar scenarioPRJP1.node[0].mobility 	startTime 	0.1
scalar scenarioPRJP1.node[0].mobility 	totalTime 	949.9
scalar scenarioPRJP1.node[0].mobility 	stopTime 	950
scalar scenarioPRJP1.node[0].mobility 	minSpeed 	2.4755636710504e-13
scalar scenarioPRJP1.node[0].mobility 	maxSpeed 	18.687183401564
scalar scenarioPRJP1.node[0].mobility 	totalDistance 	8934.6560553356
scalar scenarioPRJP1.node[0].mobility 	totalCO2Emission 	2459.4705465476
scalar scenarioPRJP1.node[0].wlan.mgmt 	dataQueueLen:max 	2
attr interpolationmode  sample-hold
attr title  "data queue length, max"
scalar scenarioPRJP1.node[0].wlan.mgmt 	dataQueueLen:timeavg 	0
attr interpolationmode  sample-hold
attr title  "data queue length, timeavg"
scalar scenarioPRJP1.node[0].wlan.mgmt 	dropPkByQueue:count 	0
attr interpolationmode  none
attr source  dropPkByQueue
attr title  "packets dropped by queue, count"
scalar scenarioPRJP1.node[0].wlan.mgmt 	dropPkByQueue:sum(packetBytes) 	0
attr interpolationmode  none
attr source  dropPkByQueue
attr title  "packets dropped by queue, sum(packetBytes)"
scalar scenarioPRJP1.node[0].wlan.mac 	"number of received packets" 	499
scalar scenarioPRJP1.node[0].wlan.mac 	"number of collisions" 	381
scalar scenarioPRJP1.node[0].wlan.mac 	"number of internal collisions" 	0
scalar scenarioPRJP1.node[0].wlan.mac 	"number of retry for AC 0" 	2193
scalar scenarioPRJP1.node[0].wlan.mac 	"number of retry for AC 1" 	30
scalar scenarioPRJP1.node[0].wlan.mac 	"number of retry for AC 2" 	0
scalar scenarioPRJP1.node[0].wlan.mac 	"number of retry for AC 3" 	0
scalar scenarioPRJP1.node[0].wlan.mac 	"sent and received bits" 	13113312
scalar scenarioPRJP1.node[0].wlan.mac 	"sent packet within AC 0" 	70
scalar scenarioPRJP1.node[0].wlan.mac 	"sent packet within AC 1" 	1
scalar scenarioPRJP1.node[0].wlan.mac 	"sent packet within AC 2" 	0
scalar scenarioPRJP1.node[0].wlan.mac 	"sent packet within AC 3" 	0
scalar scenarioPRJP1.node[0].wlan.mac 	"sent in TXOP " 	0
scalar scenarioPRJP1.node[0].wlan.mac 	"sentWithoutRetry AC 0" 	60
scalar scenarioPRJP1.node[0].wlan.mac 	"sentWithoutRetry AC 1" 	1
scalar scenarioPRJP1.node[0].wlan.mac 	"sentWithoutRetry AC 2" 	0
scalar scenarioPRJP1.node[0].wlan.mac 	"sentWithoutRetry AC 3" 	0
scalar scenarioPRJP1.node[0].wlan.mac 	"numGivenUp AC 0" 	363
scalar scenarioPRJP1.node[0].wlan.mac 	"numGivenUp AC 1" 	5
scalar scenarioPRJP1.node[0].wlan.mac 	"numGivenUp AC 2" 	0
scalar scenarioPRJP1.node[0].wlan.mac 	"numGivenUp AC 3" 	0
scalar scenarioPRJP1.node[0].wlan.mac 	"numDropped AC 0" 	0
scalar scenarioPRJP1.node[0].wlan.mac 	"numDropped AC 1" 	0
scalar scenarioPRJP1.node[0].wlan.mac 	"numDropped AC 2" 	0
scalar scenarioPRJP1.node[0].wlan.mac 	"numDropped AC 3" 	0
scalar scenarioPRJP1.node[0].wlan.mac 	rcvdPkFromLL:count 	4082
attr interpolationmode  none
attr source  packetReceivedFromLower
attr title  "packets received from lower layer, count"
scalar scenarioPRJP1.node[0].wlan.mac 	rcvdPkFromLL:sum(packetBytes) 	2260152
attr interpolationmode  none
attr source  packetReceivedFromLower
attr title  "packets received from lower layer, sum(packetBytes)"
scalar scenarioPRJP1.node[0].wlan.mac 	sentDownPk:count 	4829
attr interpolationmode  none
attr source  packetSentToLower
attr title  "packets sent to lower layer, count"
scalar scenarioPRJP1.node[0].wlan.mac 	sentDownPk:sum(packetBytes) 	3092954
attr interpolationmode  none
attr source  packetSentToLower
attr title  "packets sent to lower layer, sum(packetBytes)"
scalar scenarioPRJP1.node[0].wlan.mac 	rcvdPkFromHL:count 	2107
attr interpolationmode  none
attr source  packetReceivedFromUpper
attr title  "packets received from higher layer, count"
scalar scenarioPRJP1.node[0].wlan.mac 	rcvdPkFromHL:sum(packetBytes) 	1844616
attr interpolationmode  none
attr source  packetReceivedFromUpper
attr title  "packets received from higher layer, sum(packetBytes)"
scalar scenarioPRJP1.node[0].wlan.mac 	passedUpPk:count 	1138
attr interpolationmode  none
attr source  packetSentToUpper
attr title  "packets passed to higher layer, count"
scalar scenarioPRJP1.node[0].wlan.mac 	passedUpPk:sum(packetBytes) 	1037468
attr interpolationmode  none
attr source  packetSentToUpper
attr title  "packets passed to higher layer, sum(packetBytes)"
statistic scenarioPRJP1.node[0].wlan.radio 	radioChannel:histogram
field count 1
field mean 3
field stddev -nan
field sum 3
field sqrsum 9
field min 3
field max 3
attr interpolationmode  sample-hold
attr source  radioChannelChanged
attr title  "Radio channel, histogram"
bin	-INF	0
bin	2	0
bin	3	1
bin	4	0
scalar scenarioPRJP1.node[0].wlan.radio 	transmissionState:count 	19316
attr interpolationmode  sample-hold
attr source  transmissionStateChanged
attr title  "Radio transmission state, count"
scalar scenarioPRJP1.node[0].wlan.radio 	receptionState:count 	17908
attr interpolationmode  sample-hold
attr source  receptionStateChanged
attr title  "Radio reception state, count"
scalar scenarioPRJP1.node[0].wlan.radio 	radioMode:count 	9660
attr interpolationmode  sample-hold
attr source  radioModeChanged
attr title  "Radio mode, count"
statistic scenarioPRJP1.node[0].wlan.radio 	symbolErrorRate:histogram
field count 0
field mean -nan
field stddev -nan
field sum 0
field sqrsum 0
field min -nan
field max -nan
attr source  symbolErrorRate
attr title  "Symbol error rate, histogram"
bin	-INF	0
bin	-0.5	0
bin	-0.46666666666667	0
bin	-0.43333333333333	0
bin	-0.4	0
bin	-0.36666666666667	0
bin	-0.33333333333333	0
bin	-0.3	0
bin	-0.26666666666667	0
bin	-0.23333333333333	0
bin	-0.2	0
bin	-0.16666666666667	0
bin	-0.13333333333333	0
bin	-0.1	0
bin	-0.066666666666667	0
bin	-0.033333333333333	0
bin	0	0
bin	0.033333333333333	0
bin	0.066666666666667	0
bin	0.1	0
bin	0.13333333333333	0
bin	0.16666666666667	0
bin	0.2	0
bin	0.23333333333333	0
bin	0.26666666666667	0
bin	0.3	0
bin	0.33333333333333	0
bin	0.36666666666667	0
bin	0.4	0
bin	0.43333333333333	0
bin	0.46666666666667	0
bin	0.5	0
statistic scenarioPRJP1.node[0].wlan.radio 	bitErrorRate:histogram
field count 0
field mean -nan
field stddev -nan
field sum 0
field sqrsum 0
field min -nan
field max -nan
attr source  bitErrorRate
attr title  "Bit error rate, histogram"
bin	-INF	0
bin	-0.5	0
bin	-0.46666666666667	0
bin	-0.43333333333333	0
bin	-0.4	0
bin	-0.36666666666667	0
bin	-0.33333333333333	0
bin	-0.3	0
bin	-0.26666666666667	0
bin	-0.23333333333333	0
bin	-0.2	0
bin	-0.16666666666667	0
bin	-0.13333333333333	0
bin	-0.1	0
bin	-0.066666666666667	0
bin	-0.033333333333333	0
bin	0	0
bin	0.033333333333333	0
bin	0.066666666666667	0
bin	0.1	0
bin	0.13333333333333	0
bin	0.16666666666667	0
bin	0.2	0
bin	0.23333333333333	0
bin	0.26666666666667	0
bin	0.3	0
bin	0.33333333333333	0
bin	0.36666666666667	0
bin	0.4	0
bin	0.43333333333333	0
bin	0.46666666666667	0
bin	0.5	0
statistic scenarioPRJP1.node[0].wlan.radio 	packetErrorRate:histogram
field count 4082
field mean 0.092137058648135
field stddev 0.28262478731947
field sum 376.10347340169
field sqrsum 360.63016781907
field min 0
field max 1
attr source  packetErrorRate
attr title  "Packet error rate, histogram"
bin	-INF	0
bin	-0.5	0
bin	-0.43333333333333	0
bin	-0.36666666666667	0
bin	-0.3	0
bin	-0.23333333333333	0
bin	-0.16666666666667	0
bin	-0.1	0
bin	-0.033333333333333	3641
bin	0.033333333333333	26
bin	0.1	13
bin	0.16666666666667	9
bin	0.23333333333333	9
bin	0.3	4
bin	0.36666666666667	3
bin	0.43333333333333	6
bin	0.5	4
bin	0.56666666666667	3
bin	0.63333333333333	1
bin	0.7	6
bin	0.76666666666667	7
bin	0.83333333333333	9
bin	0.9	7
bin	0.96666666666667	334
bin	1.0333333333333	0
bin	1.1	0
bin	1.1666666666667	0
bin	1.2333333333333	0
bin	1.3	0
bin	1.3666666666667	0
bin	1.4333333333333	0
bin	1.5	0
statistic scenarioPRJP1.node[0].wlan.radio 	minSNIR:histogram
field count 4082
field mean 1628.4041864564
field stddev 6865.3312395574
field sum 6647145.8891151
field sqrsum 203173086924.53
field min 0.0037931172669901
field max 227351.85623546
attr source  minSNIR
attr title  "Min SNIR, histogram"
bin	-INF	0
bin	-25915.173297711	0
bin	-22459.539706065	0
bin	-19003.906114419	0
bin	-15548.272522773	0
bin	-12092.638931127	0
bin	-8637.0053394816	0
bin	-5181.3717478357	0
bin	-1725.7381561898	3595
bin	1729.8954354561	183
bin	5185.5290271019	95
bin	8641.1626187478	63
bin	12096.796210394	41
bin	15552.42980204	29
bin	19008.063393685	15
bin	22463.696985331	13
bin	25919.330576977	8
bin	29374.964168623	6
bin	32830.597760269	6
bin	36286.231351915	4
bin	39741.864943561	5
bin	43197.498535207	2
bin	46653.132126852	4
bin	50108.765718498	4
bin	53564.399310144	1
bin	57020.03290179	1
bin	60475.666493436	1
bin	63931.300085082	0
bin	67386.933676728	2
bin	70842.567268374	0
bin	74298.200860019	0
bin	77753.834451665	4
scalar scenarioPRJP1.node[0].lo0.lo 	droppedPkBitError:count 	0
attr interpolationmode  none
attr source  dropPkBitError
attr title  "packets dropped/bit error, count"
scalar scenarioPRJP1.node[0].lo0.lo 	droppedPkBitError:sum(packetBytes) 	0
attr interpolationmode  none
attr source  dropPkBitError
attr title  "packets dropped/bit error, sum(packetBytes)"
scalar scenarioPRJP1.node[0].lo0.lo 	rcvdPkFromHL:count 	0
attr interpolationmode  none
attr source  packetReceivedFromUpper
attr title  "packets received from higher layer, count"
scalar scenarioPRJP1.node[0].lo0.lo 	rcvdPkFromHL:sum(packetBytes) 	0
attr interpolationmode  none
attr source  packetReceivedFromUpper
attr title  "packets received from higher layer, sum(packetBytes)"
scalar scenarioPRJP1.node[0].lo0.lo 	passedUpPk:count 	0
attr interpolationmode  none
attr source  packetSentToUpper
attr title  "packets passed to higher layer, count"
scalar scenarioPRJP1.node[0].lo0.lo 	passedUpPk:sum(packetBytes) 	0
attr interpolationmode  none
attr source  packetSentToUpper
attr title  "packets passed to higher layer, sum(packetBytes)"
scalar scenarioPRJP1.node[5].app 	"Total sent" 	2608
scalar scenarioPRJP1.node[5].app 	"Total received" 	297
scalar scenarioPRJP1.node[5].app 	"Total deleted" 	0
scalar scenarioPRJP1.node[5].app 	dropPk:count 	0
attr interpolationmode  none
attr source  dropPk
attr title  "packets dropped, count"
scalar scenarioPRJP1.node[5].app 	dropPk:sum(packetBytes) 	0
attr interpolationmode  none
attr source  dropPk
attr title  "packets dropped, sum(packetBytes)"
scalar scenarioPRJP1.node[5].app 	outOfOrderPk:count 	0
attr interpolationmode  none
attr source  outOfOrderPk
attr title  "packets received out of order, count"
scalar scenarioPRJP1.node[5].app 	outOfOrderPk:sum(packetBytes) 	0
attr interpolationmode  none
attr source  outOfOrderPk
attr title  "packets received out of order, sum(packetBytes)"
scalar scenarioPRJP1.node[5].app 	rcvdPk:count 	297
attr interpolationmode  none
attr source  rcvdPk
attr title  "packets received, count"
scalar scenarioPRJP1.node[5].app 	rcvdPk:sum(packetBytes) 	152064
attr interpolationmode  none
attr source  rcvdPk
attr title  "packets received, sum(packetBytes)"
statistic scenarioPRJP1.node[5].app 	endToEndDelay:histogram
field count 297
field mean 0.10394576728434
field stddev 0.39646699101471
field sum 30.87189288345
field sqrsum 49.736080782712
field min 0.000945011007
field max 2.830971386581
attr interpolationmode  none
attr source  messageAge(rcvdPk)
attr title  "delay, histogram"
attr unit  s
bin	-INF	0
bin	-1.249130838463	0
bin	-1.082454053497	0
bin	-0.915777268531	0
bin	-0.749100483565	0
bin	-0.582423698599	0
bin	-0.415746913633	0
bin	-0.249070128667	0
bin	-0.082393343701	275
bin	0.084283441265	1
bin	0.250960226231	2
bin	0.417637011197	4
bin	0.584313796163	0
bin	0.750990581129	1
bin	0.917667366095	1
bin	1.084344151061	1
bin	1.251020936027	2
bin	1.417697720993	2
bin	1.584374505959	0
bin	1.751051290925	3
bin	1.917728075891	2
bin	2.084404860857	1
bin	2.251081645823	0
bin	2.417758430789	1
bin	2.584435215755	0
bin	2.751112000721	1
bin	2.917788785687	0
bin	3.084465570653	0
bin	3.251142355619	0
bin	3.417819140585	0
bin	3.584495925551	0
bin	3.751172710517	0
scalar scenarioPRJP1.node[5].app 	sentPk:count 	2608
attr interpolationmode  none
attr source  sentPk
attr title  "packets sent, count"
scalar scenarioPRJP1.node[5].app 	sentPk:sum(packetBytes) 	1335296
attr interpolationmode  none
attr source  sentPk
attr title  "packets sent, sum(packetBytes)"
scalar scenarioPRJP1.node[5].udp 	droppedPkBadChecksum:count 	0
attr interpolationmode  none
attr title  "packets dropped (checksum error), count"
scalar scenarioPRJP1.node[5].udp 	droppedPkWrongPort:count 	0
attr interpolationmode  none
attr title  "packets dropped (wrong port), count"
scalar scenarioPRJP1.node[5].udp 	passedUpPk:count 	297
attr interpolationmode  none
attr title  "packets passed up, count"
scalar scenarioPRJP1.node[5].udp 	rcvdPk:count 	297
attr interpolationmode  none
attr source  rcvdPk
attr title  "packets received, count"
scalar scenarioPRJP1.node[5].udp 	rcvdPk:sum(packetBytes) 	154440
attr interpolationmode  none
attr source  rcvdPk
attr title  "packets received, sum(packetBytes)"
scalar scenarioPRJP1.node[5].udp 	sentPk:count 	2608
attr interpolationmode  none
attr source  sentPk
attr title  "packets sent, count"
scalar scenarioPRJP1.node[5].udp 	sentPk:sum(packetBytes) 	1356160
attr interpolationmode  none
attr source  sentPk
attr title  "packets sent, sum(packetBytes)"
scalar scenarioPRJP1.node[5].networkLayer.arp 	failedARPResolution:count 	23
attr title  "ARP failed resolutions, count"
scalar scenarioPRJP1.node[5].networkLayer.arp 	completedARPResolution:count 	95
attr title  "ARP completed resolutions, count"
scalar scenarioPRJP1.node[5].networkLayer.arp 	initiatedARPResolution:count 	36
attr title  "ARP initiated resolutions, count"
scalar scenarioPRJP1.node[5].networkLayer.arp 	sentReply:count 	20
attr title  "ARP replies sent, count"
scalar scenarioPRJP1.node[5].networkLayer.arp 	sentReq:count 	92
attr title  "ARP request sent, count"
scalar scenarioPRJP1.node[5].mobility 	startTime 	2.5
scalar scenarioPRJP1.node[5].mobility 	totalTime 	947.5
scalar scenarioPRJP1.node[5].mobility 	stopTime 	950
scalar scenarioPRJP1.node[5].mobility 	minSpeed 	2.475488054971e-13
scalar scenarioPRJP1.node[5].mobility 	maxSpeed 	20.165903518542
scalar scenarioPRJP1.node[5].mobility 	totalDistance 	9872.6776590977
scalar scenarioPRJP1.node[5].mobility 	totalCO2Emission 	2747.5802966857
scalar scenarioPRJP1.node[5].wlan.mgmt 	dataQueueLen:max 	1
attr interpolationmode  sample-hold
attr title  "data queue length, max"
scalar scenarioPRJP1.node[5].wlan.mgmt 	dataQueueLen:timeavg 	0
attr interpolationmode  sample-hold
attr title  "data queue length, timeavg"
scalar scenarioPRJP1.node[5].wlan.mgmt 	dropPkByQueue:count 	0
attr interpolationmode  none
attr source  dropPkByQueue
attr title  "packets dropped by queue, count"
scalar scenarioPRJP1.node[5].wlan.mgmt 	dropPkByQueue:sum(packetBytes) 	0
attr interpolationmode  none
attr source  dropPkByQueue
attr title  "packets dropped by queue, sum(packetBytes)"
scalar scenarioPRJP1.node[5].wlan.mac 	"number of received packets" 	820
scalar scenarioPRJP1.node[5].wlan.mac 	"number of collisions" 	594
scalar scenarioPRJP1.node[5].wlan.mac 	"number of internal collisions" 	0
scalar scenarioPRJP1.node[5].wlan.mac 	"number of retry for AC 0" 	3756
scalar scenarioPRJP1.node[5].wlan.mac 	"number of retry for AC 1" 	42
scalar scenarioPRJP1.node[5].wlan.mac 	"number of retry for AC 2" 	0
scalar scenarioPRJP1.node[5].wlan.mac 	"number of retry for AC 3" 	0
scalar scenarioPRJP1.node[5].wlan.mac 	"sent and received bits" 	14026176
scalar scenarioPRJP1.node[5].wlan.mac 	"sent packet within AC 0" 	141
scalar scenarioPRJP1.node[5].wlan.mac 	"sent packet within AC 1" 	4
scalar scenarioPRJP1.node[5].wlan.mac 	"sent packet within AC 2" 	0
scalar scenarioPRJP1.node[5].wlan.mac 	"sent packet within AC 3" 	0
scalar scenarioPRJP1.node[5].wlan.mac 	"sent in TXOP " 	0
scalar scenarioPRJP1.node[5].wlan.mac 	"sentWithoutRetry AC 0" 	119
scalar scenarioPRJP1.node[5].wlan.mac 	"sentWithoutRetry AC 1" 	4
scalar scenarioPRJP1.node[5].wlan.mac 	"sentWithoutRetry AC 2" 	0
scalar scenarioPRJP1.node[5].wlan.mac 	"sentWithoutRetry AC 3" 	0
scalar scenarioPRJP1.node[5].wlan.mac 	"numGivenUp AC 0" 	618
scalar scenarioPRJP1.node[5].wlan.mac 	"numGivenUp AC 1" 	7
scalar scenarioPRJP1.node[5].wlan.mac 	"numGivenUp AC 2" 	0
scalar scenarioPRJP1.node[5].wlan.mac 	"numGivenUp AC 3" 	0
scalar scenarioPRJP1.node[5].wlan.mac 	"numDropped AC 0" 	0
scalar scenarioPRJP1.node[5].wlan.mac 	"numDropped AC 1" 	0
scalar scenarioPRJP1.node[5].wlan.mac 	"numDropped AC 2" 	0
scalar scenarioPRJP1.node[5].wlan.mac 	"numDropped AC 3" 	0
scalar scenarioPRJP1.node[5].wlan.mac 	rcvdPkFromLL:count 	5865
attr interpolationmode  none
attr source  packetReceivedFromLower
attr title  "packets received from lower layer, count"
scalar scenarioPRJP1.node[5].wlan.mac 	rcvdPkFromLL:sum(packetBytes) 	3300908
attr interpolationmode  none
attr source  packetReceivedFromLower
attr title  "packets received from lower layer, sum(packetBytes)"
scalar scenarioPRJP1.node[5].wlan.mac 	sentDownPk:count 	7047
attr interpolationmode  none
attr source  packetSentToLower
attr title  "packets sent to lower layer, count"
scalar scenarioPRJP1.node[5].wlan.mac 	sentDownPk:sum(packetBytes) 	4220588
attr interpolationmode  none
attr source  packetSentToLower
attr title  "packets sent to lower layer, sum(packetBytes)"
scalar scenarioPRJP1.node[5].wlan.mac 	rcvdPkFromHL:count 	2429
attr interpolationmode  none
attr source  packetReceivedFromUpper
attr title  "packets received from higher layer, count"
scalar scenarioPRJP1.node[5].wlan.mac 	rcvdPkFromHL:sum(packetBytes) 	2100156
attr interpolationmode  none
attr source  packetReceivedFromUpper
attr title  "packets received from higher layer, sum(packetBytes)"
scalar scenarioPRJP1.node[5].wlan.mac 	passedUpPk:count 	1756
attr interpolationmode  none
attr source  packetSentToUpper
attr title  "packets passed to higher layer, count"
scalar scenarioPRJP1.node[5].wlan.mac 	passedUpPk:sum(packetBytes) 	1542080
attr interpolationmode  none
attr source  packetSentToUpper
attr title  "packets passed to higher layer, sum(packetBytes)"
statistic scenarioPRJP1.node[5].wlan.radio 	radioChannel:histogram
field count 1
field mean 3
field stddev -nan
field sum 3
field sqrsum 9
field min 3
field max 3
attr interpolationmode  sample-hold
attr source  radioChannelChanged
attr title  "Radio channel, histogram"
bin	-INF	0
bin	2	0
bin	3	1
bin	4	0
scalar scenarioPRJP1.node[5].wlan.radio 	transmissionState:count 	28188
attr interpolationmode  sample-hold
attr source  transmissionStateChanged
attr title  "Radio transmission state, count"
scalar scenarioPRJP1.node[5].wlan.radio 	receptionState:count 	25945
attr interpolationmode  sample-hold
attr source  receptionStateChanged
attr title  "Radio reception state, count"
scalar scenarioPRJP1.node[5].wlan.radio 	radioMode:count 	14096
attr interpolationmode  sample-hold
attr source  radioModeChanged
attr title  "Radio mode, count"
statistic scenarioPRJP1.node[5].wlan.radio 	symbolErrorRate:histogram
field count 0
field mean -nan
field stddev -nan
field sum 0
field sqrsum 0
field min -nan
field max -nan
attr source  symbolErrorRate
attr title  "Symbol error rate, histogram"
bin	-INF	0
bin	-0.5	0
bin	-0.46666666666667	0
bin	-0.43333333333333	0
bin	-0.4	0
bin	-0.36666666666667	0
bin	-0.33333333333333	0
bin	-0.3	0
bin	-0.26666666666667	0
bin	-0.23333333333333	0
bin	-0.2	0
bin	-0.16666666666667	0
bin	-0.13333333333333	0
bin	-0.1	0
bin	-0.066666666666667	0
bin	-0.033333333333333	0
bin	0	0
bin	0.033333333333333	0
bin	0.066666666666667	0
bin	0.1	0
bin	0.13333333333333	0
bin	0.16666666666667	0
bin	0.2	0
bin	0.23333333333333	0
bin	0.26666666666667	0
bin	0.3	0
bin	0.33333333333333	0
bin	0.36666666666667	0
bin	0.4	0
bin	0.43333333333333	0
bin	0.46666666666667	0
bin	0.5	0
statistic scenarioPRJP1.node[5].wlan.radio 	bitErrorRate:histogram
field count 0
field mean -nan
field stddev -nan
field sum 0
field sqrsum 0
field min -nan
field max -nan
attr source  bitErrorRate
attr title  "Bit error rate, histogram"
bin	-INF	0
bin	-0.5	0
bin	-0.46666666666667	0
bin	-0.43333333333333	0
bin	-0.4	0
bin	-0.36666666666667	0
bin	-0.33333333333333	0
bin	-0.3	0
bin	-0.26666666666667	0
bin	-0.23333333333333	0
bin	-0.2	0
bin	-0.16666666666667	0
bin	-0.13333333333333	0
bin	-0.1	0
bin	-0.066666666666667	0
bin	-0.033333333333333	0
bin	0	0
bin	0.033333333333333	0
bin	0.066666666666667	0
bin	0.1	0
bin	0.13333333333333	0
bin	0.16666666666667	0
bin	0.2	0
bin	0.23333333333333	0
bin	0.26666666666667	0
bin	0.3	0
bin	0.33333333333333	0
bin	0.36666666666667	0
bin	0.4	0
bin	0.43333333333333	0
bin	0.46666666666667	0
bin	0.5	0
statistic scenarioPRJP1.node[5].wlan.radio 	packetErrorRate:histogram
field count 5865
field mean 0.099117118842298
field stddev 0.29294647255557
field sum 581.32190201008
field sqrsum 560.8535682772
field min 0
field max 1
attr source  packetErrorRate
attr title  "Packet error rate, histogram"
bin	-INF	0
bin	-0.5	0
bin	-0.46666666666667	0
bin	-0.43333333333333	0
bin	-0.4	0
bin	-0.36666666666667	0
bin	-0.33333333333333	0
bin	-0.3	0
bin	-0.26666666666667	0
bin	-0.23333333333333	0
bin	-0.2	0
bin	-0.16666666666667	0
bin	-0.13333333333333	0
bin	-0.1	0
bin	-0.066666666666667	0
bin	-0.033333333333333	0
bin	0	5195
bin	0.033333333333333	22
bin	0.066666666666667	15
bin	0.1	16
bin	0.13333333333333	4
bin	0.16666666666667	7
bin	0.2	6
bin	0.23333333333333	2
bin	0.26666666666667	1
bin	0.3	4
bin	0.33333333333333	2
bin	0.36666666666667	6
bin	0.4	6
bin	0.43333333333333	3
bin	0.46666666666667	3
bin	0.5	573
statistic scenarioPRJP1.node[5].wlan.radio 	minSNIR:histogram
field count 5865
field mean 15002.809632464
field stddev 73362.663073624
field sum 87991478.494399
field sqrsum 32880638475332
field min 0.00029900606045163
field max 1425601.5229866
attr source  minSNIR
attr title  "Min SNIR, histogram"
bin	-INF	0
bin	-15777.733456425	0
bin	-13668.305112258	0
bin	-11558.87676809	0
bin	-9449.4484239224	0
bin	-7340.0200797547	0
bin	-5230.5917355871	0
bin	-3121.1633914195	0
bin	-1011.7350472518	4706
bin	1097.6932969158	320
bin	3207.1216410834	149
bin	5316.5499852511	85
bin	7425.9783294187	59
bin	9535.4066735864	41
bin	11644.835017754	33
bin	13754.263361922	25
bin	15863.691706089	22
bin	17973.120050257	19
bin	20082.548394425	11
bin	22191.976738592	8
bin	24301.40508276	7
bin	26410.833426927	6
bin	28520.261771095	7
bin	30629.690115263	3
bin	32739.11845943	8
bin	34848.546803598	4
bin	36957.975147766	3
bin	39067.403491933	4
bin	41176.831836101	2
bin	43286.260180269	6
bin	45395.688524436	5
bin	47505.116868604	332
scalar scenarioPRJP1.node[5].lo0.lo 	droppedPkBitError:count 	0
attr interpolationmode  none
attr source  dropPkBitError
attr title  "packets dropped/bit error, count"
scalar scenarioPRJP1.node[5].lo0.lo 	droppedPkBitError:sum(packetBytes) 	0
attr interpolationmode  none
attr source  dropPkBitError
attr title  "packets dropped/bit error, sum(packetBytes)"
scalar scenarioPRJP1.node[5].lo0.lo 	rcvdPkFromHL:count 	0
attr interpolationmode  none
attr source  packetReceivedFromUpper
attr title  "packets received from higher layer, count"
scalar scenarioPRJP1.node[5].lo0.lo 	rcvdPkFromHL:sum(packetBytes) 	0
attr interpolationmode  none
attr source  packetReceivedFromUpper
attr title  "packets received from higher layer, sum(packetBytes)"
scalar scenarioPRJP1.node[5].lo0.lo 	passedUpPk:count 	0
attr interpolationmode  none
attr source  packetSentToUpper
attr title  "packets passed to higher layer, count"
scalar scenarioPRJP1.node[5].lo0.lo 	passedUpPk:sum(packetBytes) 	0
attr interpolationmode  none
attr source  packetSentToUpper
attr title  "packets passed to higher layer, sum(packetBytes)"
scalar scenarioPRJP1.node[1].app 	"Total sent" 	2604
scalar scenarioPRJP1.node[1].app 	"Total received" 	354
scalar scenarioPRJP1.node[1].app 	"Total deleted" 	0
scalar scenarioPRJP1.node[1].app 	dropPk:count 	0
attr interpolationmode  none
attr source  dropPk
attr title  "packets dropped, count"
scalar scenarioPRJP1.node[1].app 	dropPk:sum(packetBytes) 	0
attr interpolationmode  none
attr source  dropPk
attr title  "packets dropped, sum(packetBytes)"
scalar scenarioPRJP1.node[1].app 	outOfOrderPk:count 	1
attr interpolationmode  none
attr source  outOfOrderPk
attr title  "packets received out of order, count"
scalar scenarioPRJP1.node[1].app 	outOfOrderPk:sum(packetBytes) 	512
attr interpolationmode  none
attr source  outOfOrderPk
attr title  "packets received out of order, sum(packetBytes)"
scalar scenarioPRJP1.node[1].app 	rcvdPk:count 	354
attr interpolationmode  none
attr source  rcvdPk
attr title  "packets received, count"
scalar scenarioPRJP1.node[1].app 	rcvdPk:sum(packetBytes) 	181248
attr interpolationmode  none
attr source  rcvdPk
attr title  "packets received, sum(packetBytes)"
statistic scenarioPRJP1.node[1].app 	endToEndDelay:histogram
field count 354
field mean 0.052272568237946
field stddev 0.24781250460748
field sum 18.504489156233
field sqrsum 22.645373388389
field min 0.000945011007
field max 2.029949131376
attr interpolationmode  none
attr source  messageAge(rcvdPk)
attr title  "delay, histogram"
attr unit  s
bin	-INF	0
bin	-0.511746093268	0
bin	-0.44338727936467	0
bin	-0.37502846546133	0
bin	-0.306669651558	0
bin	-0.23831083765467	0
bin	-0.16995202375133	0
bin	-0.101593209848	0
bin	-0.033234395944667	332
bin	0.035124417958667	8
bin	0.103483231862	0
bin	0.17184204576533	0
bin	0.24020085966867	0
bin	0.308559673572	1
bin	0.37691848747533	0
bin	0.44527730137867	0
bin	0.513636115282	3
bin	0.58199492918533	0
bin	0.65035374308867	0
bin	0.718712556992	0
bin	0.78707137089533	0
bin	0.85543018479867	0
bin	0.923788998702	0
bin	0.99214781260533	4
bin	1.0605066265087	1
bin	1.128865440412	0
bin	1.1972242543153	0
bin	1.2655830682187	1
bin	1.333941882122	0
bin	1.4023006960253	0
bin	1.4706595099287	0
bin	1.539018323832	4
scalar scenarioPRJP1.node[1].app 	sentPk:count 	2604
attr interpolationmode  none
attr source  sentPk
attr title  "packets sent, count"
scalar scenarioPRJP1.node[1].app 	sentPk:sum(packetBytes) 	1333248
attr interpolationmode  none
attr source  sentPk
attr title  "packets sent, sum(packetBytes)"
scalar scenarioPRJP1.node[1].udp 	droppedPkBadChecksum:count 	0
attr interpolationmode  none
attr title  "packets dropped (checksum error), count"
scalar scenarioPRJP1.node[1].udp 	droppedPkWrongPort:count 	0
attr interpolationmode  none
attr title  "packets dropped (wrong port), count"
scalar scenarioPRJP1.node[1].udp 	passedUpPk:count 	355
attr interpolationmode  none
attr title  "packets passed up, count"
scalar scenarioPRJP1.node[1].udp 	rcvdPk:count 	355
attr interpolationmode  none
attr source  rcvdPk
attr title  "packets received, count"
scalar scenarioPRJP1.node[1].udp 	rcvdPk:sum(packetBytes) 	184600
attr interpolationmode  none
attr source  rcvdPk
attr title  "packets received, sum(packetBytes)"
scalar scenarioPRJP1.node[1].udp 	sentPk:count 	2604
attr interpolationmode  none
attr source  sentPk
attr title  "packets sent, count"
scalar scenarioPRJP1.node[1].udp 	sentPk:sum(packetBytes) 	1354080
attr interpolationmode  none
attr source  sentPk
attr title  "packets sent, sum(packetBytes)"
scalar scenarioPRJP1.node[1].networkLayer.arp 	failedARPResolution:count 	19
attr title  "ARP failed resolutions, count"
scalar scenarioPRJP1.node[1].networkLayer.arp 	completedARPResolution:count 	119
attr title  "ARP completed resolutions, count"
scalar scenarioPRJP1.node[1].networkLayer.arp 	initiatedARPResolution:count 	32
attr title  "ARP initiated resolutions, count"
scalar scenarioPRJP1.node[1].networkLayer.arp 	sentReply:count 	13
attr title  "ARP replies sent, count"
scalar scenarioPRJP1.node[1].networkLayer.arp 	sentReq:count 	76
attr title  "ARP request sent, count"
scalar scenarioPRJP1.node[1].mobility 	startTime 	0.1
scalar scenarioPRJP1.node[1].mobility 	totalTime 	949.9
scalar scenarioPRJP1.node[1].mobility 	stopTime 	950
scalar scenarioPRJP1.node[1].mobility 	minSpeed 	2.4754502045694e-13
scalar scenarioPRJP1.node[1].mobility 	maxSpeed 	19.299584661166
scalar scenarioPRJP1.node[1].mobility 	totalDistance 	10277.074472144
scalar scenarioPRJP1.node[1].mobility 	totalCO2Emission 	2754.9955661296
scalar scenarioPRJP1.node[1].wlan.mgmt 	dataQueueLen:max 	5
attr interpolationmode  sample-hold
attr title  "data queue length, max"
scalar scenarioPRJP1.node[1].wlan.mgmt 	dataQueueLen:timeavg 	0
attr interpolationmode  sample-hold
attr title  "data queue length, timeavg"
scalar scenarioPRJP1.node[1].wlan.mgmt 	dropPkByQueue:count 	0
attr interpolationmode  none
attr source  dropPkByQueue
attr title  "packets dropped by queue, count"
scalar scenarioPRJP1.node[1].wlan.mgmt 	dropPkByQueue:sum(packetBytes) 	0
attr interpolationmode  none
attr source  dropPkByQueue
attr title  "packets dropped by queue, sum(packetBytes)"
scalar scenarioPRJP1.node[1].wlan.mac 	"number of received packets" 	975
scalar scenarioPRJP1.node[1].wlan.mac 	"number of collisions" 	573
scalar scenarioPRJP1.node[1].wlan.mac 	"number of internal collisions" 	0
scalar scenarioPRJP1.node[1].wlan.mac 	"number of retry for AC 0" 	3621
scalar scenarioPRJP1.node[1].wlan.mac 	"number of retry for AC 1" 	30
scalar scenarioPRJP1.node[1].wlan.mac 	"number of retry for AC 2" 	0
scalar scenarioPRJP1.node[1].wlan.mac 	"number of retry for AC 3" 	0
scalar scenarioPRJP1.node[1].wlan.mac 	"sent and received bits" 	14309952
scalar scenarioPRJP1.node[1].wlan.mac 	"sent packet within AC 0" 	163
scalar scenarioPRJP1.node[1].wlan.mac 	"sent packet within AC 1" 	3
scalar scenarioPRJP1.node[1].wlan.mac 	"sent packet within AC 2" 	0
scalar scenarioPRJP1.node[1].wlan.mac 	"sent packet within AC 3" 	0
scalar scenarioPRJP1.node[1].wlan.mac 	"sent in TXOP " 	0
scalar scenarioPRJP1.node[1].wlan.mac 	"sentWithoutRetry AC 0" 	155
scalar scenarioPRJP1.node[1].wlan.mac 	"sentWithoutRetry AC 1" 	3
scalar scenarioPRJP1.node[1].wlan.mac 	"sentWithoutRetry AC 2" 	0
scalar scenarioPRJP1.node[1].wlan.mac 	"sentWithoutRetry AC 3" 	0
scalar scenarioPRJP1.node[1].wlan.mac 	"numGivenUp AC 0" 	602
scalar scenarioPRJP1.node[1].wlan.mac 	"numGivenUp AC 1" 	5
scalar scenarioPRJP1.node[1].wlan.mac 	"numGivenUp AC 2" 	0
scalar scenarioPRJP1.node[1].wlan.mac 	"numGivenUp AC 3" 	0
scalar scenarioPRJP1.node[1].wlan.mac 	"numDropped AC 0" 	0
scalar scenarioPRJP1.node[1].wlan.mac 	"numDropped AC 1" 	0
scalar scenarioPRJP1.node[1].wlan.mac 	"numDropped AC 2" 	0
scalar scenarioPRJP1.node[1].wlan.mac 	"numDropped AC 3" 	0
scalar scenarioPRJP1.node[1].wlan.mac 	rcvdPkFromLL:count 	5918
attr interpolationmode  none
attr source  packetReceivedFromLower
attr title  "packets received from lower layer, count"
scalar scenarioPRJP1.node[1].wlan.mac 	rcvdPkFromLL:sum(packetBytes) 	3385888
attr interpolationmode  none
attr source  packetReceivedFromLower
attr title  "packets received from lower layer, sum(packetBytes)"
scalar scenarioPRJP1.node[1].wlan.mac 	sentDownPk:count 	7064
attr interpolationmode  none
attr source  packetSentToLower
attr title  "packets sent to lower layer, count"
scalar scenarioPRJP1.node[1].wlan.mac 	sentDownPk:sum(packetBytes) 	4191470
attr interpolationmode  none
attr source  packetSentToLower
attr title  "packets sent to lower layer, sum(packetBytes)"
scalar scenarioPRJP1.node[1].wlan.mac 	rcvdPkFromHL:count 	2438
attr interpolationmode  none
attr source  packetReceivedFromUpper
attr title  "packets received from higher layer, count"
scalar scenarioPRJP1.node[1].wlan.mac 	rcvdPkFromHL:sum(packetBytes) 	2129300
attr interpolationmode  none
attr source  packetReceivedFromUpper
attr title  "packets received from higher layer, sum(packetBytes)"
scalar scenarioPRJP1.node[1].wlan.mac 	passedUpPk:count 	1963
attr interpolationmode  none
attr source  packetSentToUpper
attr title  "packets passed to higher layer, count"
scalar scenarioPRJP1.node[1].wlan.mac 	passedUpPk:sum(packetBytes) 	1691816
attr interpolationmode  none
attr source  packetSentToUpper
attr title  "packets passed to higher layer, sum(packetBytes)"
statistic scenarioPRJP1.node[1].wlan.radio 	radioChannel:histogram
field count 1
field mean 3
field stddev -nan
field sum 3
field sqrsum 9
field min 3
field max 3
attr interpolationmode  sample-hold
attr source  radioChannelChanged
attr title  "Radio channel, histogram"
bin	-INF	0
bin	2	0
bin	3	1
bin	4	0
scalar scenarioPRJP1.node[1].wlan.radio 	transmissionState:count 	28256
attr interpolationmode  sample-hold
attr source  transmissionStateChanged
attr title  "Radio transmission state, count"
scalar scenarioPRJP1.node[1].wlan.radio 	receptionState:count 	26065
attr interpolationmode  sample-hold
attr source  receptionStateChanged
attr title  "Radio reception state, count"
scalar scenarioPRJP1.node[1].wlan.radio 	radioMode:count 	14130
attr interpolationmode  sample-hold
attr source  radioModeChanged
attr title  "Radio mode, count"
statistic scenarioPRJP1.node[1].wlan.radio 	symbolErrorRate:histogram
field count 0
field mean -nan
field stddev -nan
field sum 0
field sqrsum 0
field min -nan
field max -nan
attr source  symbolErrorRate
attr title  "Symbol error rate, histogram"
bin	-INF	0
bin	-0.5	0
bin	-0.46666666666667	0
bin	-0.43333333333333	0
bin	-0.4	0
bin	-0.36666666666667	0
bin	-0.33333333333333	0
bin	-0.3	0
bin	-0.26666666666667	0
bin	-0.23333333333333	0
bin	-0.2	0
bin	-0.16666666666667	0
bin	-0.13333333333333	0
bin	-0.1	0
bin	-0.066666666666667	0
bin	-0.033333333333333	0
bin	0	0
bin	0.033333333333333	0
bin	0.066666666666667	0
bin	0.1	0
bin	0.13333333333333	0
bin	0.16666666666667	0
bin	0.2	0
bin	0.23333333333333	0
bin	0.26666666666667	0
bin	0.3	0
bin	0.33333333333333	0
bin	0.36666666666667	0
bin	0.4	0
bin	0.43333333333333	0
bin	0.46666666666667	0
bin	0.5	0
statistic scenarioPRJP1.node[1].wlan.radio 	bitErrorRate:histogram
field count 0
field mean -nan
field stddev -nan
field sum 0
field sqrsum 0
field min -nan
field max -nan
attr source  bitErrorRate
attr title  "Bit error rate, histogram"
bin	-INF	0
bin	-0.5	0
bin	-0.46666666666667	0
bin	-0.43333333333333	0
bin	-0.4	0
bin	-0.36666666666667	0
bin	-0.33333333333333	0
bin	-0.3	0
bin	-0.26666666666667	0
bin	-0.23333333333333	0
bin	-0.2	0
bin	-0.16666666666667	0
bin	-0.13333333333333	0
bin	-0.1	0
bin	-0.066666666666667	0
bin	-0.033333333333333	0
bin	0	0
bin	0.033333333333333	0
bin	0.066666666666667	0
bin	0.1	0
bin	0.13333333333333	0
bin	0.16666666666667	0
bin	0.2	0
bin	0.23333333333333	0
bin	0.26666666666667	0
bin	0.3	0
bin	0.33333333333333	0
bin	0.36666666666667	0
bin	0.4	0
bin	0.43333333333333	0
bin	0.46666666666667	0
bin	0.5	0
statistic scenarioPRJP1.node[1].wlan.radio 	packetErrorRate:histogram
field count 5918
field mean 0.094475271524336
field stddev 0.28648823811753
field sum 559.10465688102
field sqrsum 538.46236036935
field min 0
field max 1
attr source  packetErrorRate
attr title  "Packet error rate, histogram"
bin	-INF	0
bin	-0.5	0
bin	-0.46666666666667	0
bin	-0.43333333333333	0
bin	-0.4	0
bin	-0.36666666666667	0
bin	-0.33333333333333	0
bin	-0.3	0
bin	-0.26666666666667	0
bin	-0.23333333333333	0
bin	-0.2	0
bin	-0.16666666666667	0
bin	-0.13333333333333	0
bin	-0.1	0
bin	-0.066666666666667	0
bin	-0.033333333333333	0
bin	0	5265
bin	0.033333333333333	26
bin	0.066666666666667	9
bin	0.1	13
bin	0.13333333333333	11
bin	0.16666666666667	8
bin	0.2	8
bin	0.23333333333333	7
bin	0.26666666666667	0
bin	0.3	3
bin	0.33333333333333	6
bin	0.36666666666667	0
bin	0.4	8
bin	0.43333333333333	2
bin	0.46666666666667	5
bin	0.5	547
statistic scenarioPRJP1.node[1].wlan.radio 	minSNIR:histogram
field count 5918
field mean 10072.471811074
field stddev 51226.855067587
field sum 59608888.177936
field sqrsum 16127745100105
field min 0.0016224818175482
field max 1615830.4923388
attr source  minSNIR
attr title  "Min SNIR, histogram"
bin	-INF	0
bin	-405625.94743552	0
bin	-351540.67761212	0
bin	-297455.40778872	0
bin	-243370.13796532	0
bin	-189284.86814193	0
bin	-135199.59831853	0
bin	-81114.32849513	0
bin	-27029.058671732	5538
bin	27056.211151666	181
bin	81141.480975064	72
bin	135226.75079846	42
bin	189312.02062186	26
bin	243397.29044526	21
bin	297482.56026866	11
bin	351567.83009205	5
bin	405653.09991545	5
bin	459738.36973885	6
bin	513823.63956225	4
bin	567908.90938565	3
bin	621994.17920904	1
bin	676079.44903244	0
bin	730164.71885584	0
bin	784249.98867924	1
bin	838335.25850264	0
bin	892420.52832603	0
bin	946505.79814943	1
bin	1000591.0679728	0
bin	1054676.3377962	0
bin	1108761.6076196	0
bin	1162846.877443	0
bin	1216932.1472664	1
scalar scenarioPRJP1.node[1].lo0.lo 	droppedPkBitError:count 	0
attr interpolationmode  none
attr source  dropPkBitError
attr title  "packets dropped/bit error, count"
scalar scenarioPRJP1.node[1].lo0.lo 	droppedPkBitError:sum(packetBytes) 	0
attr interpolationmode  none
attr source  dropPkBitError
attr title  "packets dropped/bit error, sum(packetBytes)"
scalar scenarioPRJP1.node[1].lo0.lo 	rcvdPkFromHL:count 	1
attr interpolationmode  none
attr source  packetReceivedFromUpper
attr title  "packets received from higher layer, count"
scalar scenarioPRJP1.node[1].lo0.lo 	rcvdPkFromHL:sum(packetBytes) 	56
attr interpolationmode  none
attr source  packetReceivedFromUpper
attr title  "packets received from higher layer, sum(packetBytes)"
scalar scenarioPRJP1.node[1].lo0.lo 	passedUpPk:count 	1
attr interpolationmode  none
attr source  packetSentToUpper
attr title  "packets passed to higher layer, count"
scalar scenarioPRJP1.node[1].lo0.lo 	passedUpPk:sum(packetBytes) 	56
attr interpolationmode  none
attr source  packetSentToUpper
attr title  "packets passed to higher layer, sum(packetBytes)"
scalar scenarioPRJP1.node[6].app 	"Total sent" 	2610
scalar scenarioPRJP1.node[6].app 	"Total received" 	422
scalar scenarioPRJP1.node[6].app 	"Total deleted" 	0
scalar scenarioPRJP1.node[6].app 	dropPk:count 	0
attr interpolationmode  none
attr source  dropPk
attr title  "packets dropped, count"
scalar scenarioPRJP1.node[6].app 	dropPk:sum(packetBytes) 	0
attr interpolationmode  none
attr source  dropPk
attr title  "packets dropped, sum(packetBytes)"
scalar scenarioPRJP1.node[6].app 	outOfOrderPk:count 	2
attr interpolationmode  none
attr source  outOfOrderPk
attr title  "packets received out of order, count"
scalar scenarioPRJP1.node[6].app 	outOfOrderPk:sum(packetBytes) 	1024
attr interpolationmode  none
attr source  outOfOrderPk
attr title  "packets received out of order, sum(packetBytes)"
scalar scenarioPRJP1.node[6].app 	rcvdPk:count 	422
attr interpolationmode  none
attr source  rcvdPk
attr title  "packets received, count"
scalar scenarioPRJP1.node[6].app 	rcvdPk:sum(packetBytes) 	216064
attr interpolationmode  none
attr source  rcvdPk
attr title  "packets received, sum(packetBytes)"
statistic scenarioPRJP1.node[6].app 	endToEndDelay:histogram
field count 422
field mean 0.060672587652095
field stddev 0.30304333949045
field sum 25.603831989184
field sqrsum 40.216097562202
field min 0.000945011567
field max 2.501067210142
attr interpolationmode  none
attr source  messageAge(rcvdPk)
attr title  "delay, histogram"
attr unit  s
bin	-INF	0
bin	-1.249116006617	0
bin	-1.0824411969833	0
bin	-0.91576638734953	0
bin	-0.7490915777158	0
bin	-0.58241676808207	0
bin	-0.41574195844833	0
bin	-0.2490671488146	0
bin	-0.082392339180867	402
bin	0.084282470452867	3
bin	0.2509572800866	3
bin	0.41763208972033	1
bin	0.58430689935407	1
bin	0.7509817089878	0
bin	0.91765651862153	3
bin	1.0843313282553	0
bin	1.251006137889	1
bin	1.4176809475227	1
bin	1.5843557571565	0
bin	1.7510305667902	1
bin	1.9177053764239	1
bin	2.0843801860577	3
bin	2.2510549956914	1
bin	2.4177298053251	1
bin	2.5844046149589	0
bin	2.7510794245926	0
bin	2.9177542342263	0
bin	3.0844290438601	0
bin	3.2511038534938	0
bin	3.4177786631275	0
bin	3.5844534727613	0
bin	3.751128282395	0
scalar scenarioPRJP1.node[6].app 	sentPk:count 	2610
attr interpolationmode  none
attr source  sentPk
attr title  "packets sent, count"
scalar scenarioPRJP1.node[6].app 	sentPk:sum(packetBytes) 	1336320
attr interpolationmode  none
attr source  sentPk
attr title  "packets sent, sum(packetBytes)"
scalar scenarioPRJP1.node[6].udp 	droppedPkBadChecksum:count 	0
attr interpolationmode  none
attr title  "packets dropped (checksum error), count"
scalar scenarioPRJP1.node[6].udp 	droppedPkWrongPort:count 	0
attr interpolationmode  none
attr title  "packets dropped (wrong port), count"
scalar scenarioPRJP1.node[6].udp 	passedUpPk:count 	424
attr interpolationmode  none
attr title  "packets passed up, count"
scalar scenarioPRJP1.node[6].udp 	rcvdPk:count 	424
attr interpolationmode  none
attr source  rcvdPk
attr title  "packets received, count"
scalar scenarioPRJP1.node[6].udp 	rcvdPk:sum(packetBytes) 	220480
attr interpolationmode  none
attr source  rcvdPk
attr title  "packets received, sum(packetBytes)"
scalar scenarioPRJP1.node[6].udp 	sentPk:count 	2610
attr interpolationmode  none
attr source  sentPk
attr title  "packets sent, count"
scalar scenarioPRJP1.node[6].udp 	sentPk:sum(packetBytes) 	1357200
attr interpolationmode  none
attr source  sentPk
attr title  "packets sent, sum(packetBytes)"
scalar scenarioPRJP1.node[6].networkLayer.arp 	failedARPResolution:count 	23
attr title  "ARP failed resolutions, count"
scalar scenarioPRJP1.node[6].networkLayer.arp 	completedARPResolution:count 	109
attr title  "ARP completed resolutions, count"
scalar scenarioPRJP1.node[6].networkLayer.arp 	initiatedARPResolution:count 	31
attr title  "ARP initiated resolutions, count"
scalar scenarioPRJP1.node[6].networkLayer.arp 	sentReply:count 	15
attr title  "ARP replies sent, count"
scalar scenarioPRJP1.node[6].networkLayer.arp 	sentReq:count 	87
attr title  "ARP request sent, count"
scalar scenarioPRJP1.node[6].mobility 	startTime 	2.5
scalar scenarioPRJP1.node[6].mobility 	totalTime 	947.5
scalar scenarioPRJP1.node[6].mobility 	stopTime 	950
scalar scenarioPRJP1.node[6].mobility 	minSpeed 	2.475516125998e-13
scalar scenarioPRJP1.node[6].mobility 	maxSpeed 	18.550004293353
scalar scenarioPRJP1.node[6].mobility 	totalDistance 	8926.3212088212
scalar scenarioPRJP1.node[6].mobility 	totalCO2Emission 	2515.457873809
scalar scenarioPRJP1.node[6].wlan.mgmt 	dataQueueLen:max 	3
attr interpolationmode  sample-hold
attr title  "data queue length, max"
scalar scenarioPRJP1.node[6].wlan.mgmt 	dataQueueLen:timeavg 	0
attr interpolationmode  sample-hold
attr title  "data queue length, timeavg"
scalar scenarioPRJP1.node[6].wlan.mgmt 	dropPkByQueue:count 	0
attr interpolationmode  none
attr source  dropPkByQueue
attr title  "packets dropped by queue, count"
scalar scenarioPRJP1.node[6].wlan.mgmt 	dropPkByQueue:sum(packetBytes) 	0
attr interpolationmode  none
attr source  dropPkByQueue
attr title  "packets dropped by queue, sum(packetBytes)"
scalar scenarioPRJP1.node[6].wlan.mac 	"number of received packets" 	1052
scalar scenarioPRJP1.node[6].wlan.mac 	"number of collisions" 	501
scalar scenarioPRJP1.node[6].wlan.mac 	"number of internal collisions" 	2
scalar scenarioPRJP1.node[6].wlan.mac 	"number of retry for AC 0" 	3140
scalar scenarioPRJP1.node[6].wlan.mac 	"number of retry for AC 1" 	72
scalar scenarioPRJP1.node[6].wlan.mac 	"number of retry for AC 2" 	0
scalar scenarioPRJP1.node[6].wlan.mac 	"number of retry for AC 3" 	0
scalar scenarioPRJP1.node[6].wlan.mac 	"sent and received bits" 	14762784
scalar scenarioPRJP1.node[6].wlan.mac 	"sent packet within AC 0" 	350
scalar scenarioPRJP1.node[6].wlan.mac 	"sent packet within AC 1" 	7
scalar scenarioPRJP1.node[6].wlan.mac 	"sent packet within AC 2" 	0
scalar scenarioPRJP1.node[6].wlan.mac 	"sent packet within AC 3" 	0
scalar scenarioPRJP1.node[6].wlan.mac 	"sent in TXOP " 	0
scalar scenarioPRJP1.node[6].wlan.mac 	"sentWithoutRetry AC 0" 	332
scalar scenarioPRJP1.node[6].wlan.mac 	"sentWithoutRetry AC 1" 	7
scalar scenarioPRJP1.node[6].wlan.mac 	"sentWithoutRetry AC 2" 	0
scalar scenarioPRJP1.node[6].wlan.mac 	"sentWithoutRetry AC 3" 	0
scalar scenarioPRJP1.node[6].wlan.mac 	"numGivenUp AC 0" 	518
scalar scenarioPRJP1.node[6].wlan.mac 	"numGivenUp AC 1" 	12
scalar scenarioPRJP1.node[6].wlan.mac 	"numGivenUp AC 2" 	0
scalar scenarioPRJP1.node[6].wlan.mac 	"numGivenUp AC 3" 	0
scalar scenarioPRJP1.node[6].wlan.mac 	"numDropped AC 0" 	0
scalar scenarioPRJP1.node[6].wlan.mac 	"numDropped AC 1" 	0
scalar scenarioPRJP1.node[6].wlan.mac 	"numDropped AC 2" 	0
scalar scenarioPRJP1.node[6].wlan.mac 	"numDropped AC 3" 	0
scalar scenarioPRJP1.node[6].wlan.mac 	rcvdPkFromLL:count 	7557
attr interpolationmode  none
attr source  packetReceivedFromLower
attr title  "packets received from lower layer, count"
scalar scenarioPRJP1.node[6].wlan.mac 	rcvdPkFromLL:sum(packetBytes) 	4219138
attr interpolationmode  none
attr source  packetReceivedFromLower
attr title  "packets received from lower layer, sum(packetBytes)"
scalar scenarioPRJP1.node[6].wlan.mac 	sentDownPk:count 	6776
attr interpolationmode  none
attr source  packetSentToLower
attr title  "packets sent to lower layer, count"
scalar scenarioPRJP1.node[6].wlan.mac 	sentDownPk:sum(packetBytes) 	3927068
attr interpolationmode  none
attr source  packetSentToLower
attr title  "packets sent to lower layer, sum(packetBytes)"
scalar scenarioPRJP1.node[6].wlan.mac 	rcvdPkFromHL:count 	2514
attr interpolationmode  none
attr source  packetReceivedFromUpper
attr title  "packets received from higher layer, count"
scalar scenarioPRJP1.node[6].wlan.mac 	rcvdPkFromHL:sum(packetBytes) 	2138164
attr interpolationmode  none
attr source  packetReceivedFromUpper
attr title  "packets received from higher layer, sum(packetBytes)"
scalar scenarioPRJP1.node[6].wlan.mac 	passedUpPk:count 	2466
attr interpolationmode  none
attr source  packetSentToUpper
attr title  "packets passed to higher layer, count"
scalar scenarioPRJP1.node[6].wlan.mac 	passedUpPk:sum(packetBytes) 	2174580
attr interpolationmode  none
attr source  packetSentToUpper
attr title  "packets passed to higher layer, sum(packetBytes)"
statistic scenarioPRJP1.node[6].wlan.radio 	radioChannel:histogram
field count 1
field mean 3
field stddev -nan
field sum 3
field sqrsum 9
field min 3
field max 3
attr interpolationmode  sample-hold
attr source  radioChannelChanged
attr title  "Radio channel, histogram"
bin	-INF	0
bin	2	0
bin	3	1
bin	4	0
scalar scenarioPRJP1.node[6].wlan.radio 	transmissionState:count 	27104
attr interpolationmode  sample-hold
attr source  transmissionStateChanged
attr title  "Radio transmission state, count"
scalar scenarioPRJP1.node[6].wlan.radio 	receptionState:count 	28788
attr interpolationmode  sample-hold
attr source  receptionStateChanged
attr title  "Radio reception state, count"
scalar scenarioPRJP1.node[6].wlan.radio 	radioMode:count 	13554
attr interpolationmode  sample-hold
attr source  radioModeChanged
attr title  "Radio mode, count"
statistic scenarioPRJP1.node[6].wlan.radio 	symbolErrorRate:histogram
field count 0
field mean -nan
field stddev -nan
field sum 0
field sqrsum 0
field min -nan
field max -nan
attr source  symbolErrorRate
attr title  "Symbol error rate, histogram"
bin	-INF	0
bin	-0.5	0
bin	-0.46666666666667	0
bin	-0.43333333333333	0
bin	-0.4	0
bin	-0.36666666666667	0
bin	-0.33333333333333	0
bin	-0.3	0
bin	-0.26666666666667	0
bin	-0.23333333333333	0
bin	-0.2	0
bin	-0.16666666666667	0
bin	-0.13333333333333	0
bin	-0.1	0
bin	-0.066666666666667	0
bin	-0.033333333333333	0
bin	0	0
bin	0.033333333333333	0
bin	0.066666666666667	0
bin	0.1	0
bin	0.13333333333333	0
bin	0.16666666666667	0
bin	0.2	0
bin	0.23333333333333	0
bin	0.26666666666667	0
bin	0.3	0
bin	0.33333333333333	0
bin	0.36666666666667	0
bin	0.4	0
bin	0.43333333333333	0
bin	0.46666666666667	0
bin	0.5	0
statistic scenarioPRJP1.node[6].wlan.radio 	bitErrorRate:histogram
field count 0
field mean -nan
field stddev -nan
field sum 0
field sqrsum 0
field min -nan
field max -nan
attr source  bitErrorRate
attr title  "Bit error rate, histogram"
bin	-INF	0
bin	-0.5	0
bin	-0.46666666666667	0
bin	-0.43333333333333	0
bin	-0.4	0
bin	-0.36666666666667	0
bin	-0.33333333333333	0
bin	-0.3	0
bin	-0.26666666666667	0
bin	-0.23333333333333	0
bin	-0.2	0
bin	-0.16666666666667	0
bin	-0.13333333333333	0
bin	-0.1	0
bin	-0.066666666666667	0
bin	-0.033333333333333	0
bin	0	0
bin	0.033333333333333	0
bin	0.066666666666667	0
bin	0.1	0
bin	0.13333333333333	0
bin	0.16666666666667	0
bin	0.2	0
bin	0.23333333333333	0
bin	0.26666666666667	0
bin	0.3	0
bin	0.33333333333333	0
bin	0.36666666666667	0
bin	0.4	0
bin	0.43333333333333	0
bin	0.46666666666667	0
bin	0.5	0
statistic scenarioPRJP1.node[6].wlan.radio 	packetErrorRate:histogram
field count 7557
field mean 0.064523900998116
field stddev 0.24051000762479
field sum 487.60711984276
field sqrsum 468.53961535527
field min 0
field max 1
attr source  packetErrorRate
attr title  "Packet error rate, histogram"
bin	-INF	0
bin	-0.5	0
bin	-0.46666666666667	0
bin	-0.43333333333333	0
bin	-0.4	0
bin	-0.36666666666667	0
bin	-0.33333333333333	0
bin	-0.3	0
bin	-0.26666666666667	0
bin	-0.23333333333333	0
bin	-0.2	0
bin	-0.16666666666667	0
bin	-0.13333333333333	0
bin	-0.1	0
bin	-0.066666666666667	0
bin	-0.033333333333333	0
bin	0	6983
bin	0.033333333333333	26
bin	0.066666666666667	18
bin	0.1	13
bin	0.13333333333333	4
bin	0.16666666666667	2
bin	0.2	4
bin	0.23333333333333	3
bin	0.26666666666667	7
bin	0.3	2
bin	0.33333333333333	3
bin	0.36666666666667	2
bin	0.4	1
bin	0.43333333333333	4
bin	0.46666666666667	2
bin	0.5	483
statistic scenarioPRJP1.node[6].wlan.radio 	minSNIR:histogram
field count 7557
field mean 11923.633199619
field stddev 62899.211102927
field sum 90106896.089521
field sqrsum 30968285660420
field min 0.00078029247038163
field max 2648899.2222777
attr source  minSNIR
attr title  "Min SNIR, histogram"
bin	-INF	0
bin	-59931.077002436	0
bin	-51938.017699941	0
bin	-43944.958397447	0
bin	-35951.899094952	0
bin	-27958.839792457	0
bin	-19965.780489963	0
bin	-11972.721187468	0
bin	-3979.6618849733	6290
bin	4013.3974175213	438
bin	12006.456720016	162
bin	19999.516022511	93
bin	27992.575325005	76
bin	35985.6346275	56
bin	43978.693929994	46
bin	51971.753232489	38
bin	59964.812534984	31
bin	67957.871837478	26
bin	75950.931139973	32
bin	83943.990442468	17
bin	91937.049744962	15
bin	99930.109047457	26
bin	107923.16834995	12
bin	115916.22765245	18
bin	123909.28695494	7
bin	131902.34625744	12
bin	139895.40555993	12
bin	147888.46486242	6
bin	155881.52416492	11
bin	163874.58346741	6
bin	171867.64276991	6
bin	179860.7020724	121
scalar scenarioPRJP1.node[6].lo0.lo 	droppedPkBitError:count 	0
attr interpolationmode  none
attr source  dropPkBitError
attr title  "packets dropped/bit error, count"
scalar scenarioPRJP1.node[6].lo0.lo 	droppedPkBitError:sum(packetBytes) 	0
attr interpolationmode  none
attr source  dropPkBitError
attr title  "packets dropped/bit error, sum(packetBytes)"
scalar scenarioPRJP1.node[6].lo0.lo 	rcvdPkFromHL:count 	3
attr interpolationmode  none
attr source  packetReceivedFromUpper
attr title  "packets received from higher layer, count"
scalar scenarioPRJP1.node[6].lo0.lo 	rcvdPkFromHL:sum(packetBytes) 	168
attr interpolationmode  none
attr source  packetReceivedFromUpper
attr title  "packets received from higher layer, sum(packetBytes)"
scalar scenarioPRJP1.node[6].lo0.lo 	passedUpPk:count 	3
attr interpolationmode  none
attr source  packetSentToUpper
attr title  "packets passed to higher layer, count"
scalar scenarioPRJP1.node[6].lo0.lo 	passedUpPk:sum(packetBytes) 	168
attr interpolationmode  none
attr source  packetSentToUpper
attr title  "packets passed to higher layer, sum(packetBytes)"
scalar scenarioPRJP1.node[2].app 	"Total sent" 	2607
scalar scenarioPRJP1.node[2].app 	"Total received" 	300
scalar scenarioPRJP1.node[2].app 	"Total deleted" 	0
scalar scenarioPRJP1.node[2].app 	dropPk:count 	0
attr interpolationmode  none
attr source  dropPk
attr title  "packets dropped, count"
scalar scenarioPRJP1.node[2].app 	dropPk:sum(packetBytes) 	0
attr interpolationmode  none
attr source  dropPk
attr title  "packets dropped, sum(packetBytes)"
scalar scenarioPRJP1.node[2].app 	outOfOrderPk:count 	0
attr interpolationmode  none
attr source  outOfOrderPk
attr title  "packets received out of order, count"
scalar scenarioPRJP1.node[2].app 	outOfOrderPk:sum(packetBytes) 	0
attr interpolationmode  none
attr source  outOfOrderPk
attr title  "packets received out of order, sum(packetBytes)"
scalar scenarioPRJP1.node[2].app 	rcvdPk:count 	300
attr interpolationmode  none
attr source  rcvdPk
attr title  "packets received, count"
scalar scenarioPRJP1.node[2].app 	rcvdPk:sum(packetBytes) 	153600
attr interpolationmode  none
attr source  rcvdPk
attr title  "packets received, sum(packetBytes)"
statistic scenarioPRJP1.node[2].app 	endToEndDelay:histogram
field count 300
field mean 0.042848007769043
field stddev 0.27495024135671
field sum 12.854402330713
field sqrsum 23.154478462344
field min 0.000945011007
field max 3.031923957021
attr interpolationmode  none
attr source  messageAge(rcvdPk)
attr title  "delay, histogram"
attr unit  s
bin	-INF	0
bin	-0.511434993664	0
bin	-0.44311765970787	0
bin	-0.37480032575173	0
bin	-0.3064829917956	0
bin	-0.23816565783947	0
bin	-0.16984832388333	0
bin	-0.1015309899272	0
bin	-0.033213655971067	285
bin	0.035103677985067	7
bin	0.1034210119412	0
bin	0.17173834589733	0
bin	0.24005567985347	1
bin	0.3083730138096	0
bin	0.37669034776573	1
bin	0.44500768172187	1
bin	0.513325015678	1
bin	0.58164234963413	0
bin	0.64995968359027	0
bin	0.7182770175464	0
bin	0.78659435150253	0
bin	0.85491168545867	0
bin	0.9232290194148	0
bin	0.99154635337093	1
bin	1.0598636873271	0
bin	1.1281810212832	0
bin	1.1964983552393	0
bin	1.2648156891955	0
bin	1.3331330231516	0
bin	1.4014503571077	0
bin	1.4697676910639	0
bin	1.53808502502	3
scalar scenarioPRJP1.node[2].app 	sentPk:count 	2607
attr interpolationmode  none
attr source  sentPk
attr title  "packets sent, count"
scalar scenarioPRJP1.node[2].app 	sentPk:sum(packetBytes) 	1334784
attr interpolationmode  none
attr source  sentPk
attr title  "packets sent, sum(packetBytes)"
scalar scenarioPRJP1.node[2].udp 	droppedPkBadChecksum:count 	0
attr interpolationmode  none
attr title  "packets dropped (checksum error), count"
scalar scenarioPRJP1.node[2].udp 	droppedPkWrongPort:count 	0
attr interpolationmode  none
attr title  "packets dropped (wrong port), count"
scalar scenarioPRJP1.node[2].udp 	passedUpPk:count 	300
attr interpolationmode  none
attr title  "packets passed up, count"
scalar scenarioPRJP1.node[2].udp 	rcvdPk:count 	300
attr interpolationmode  none
attr source  rcvdPk
attr title  "packets received, count"
scalar scenarioPRJP1.node[2].udp 	rcvdPk:sum(packetBytes) 	156000
attr interpolationmode  none
attr source  rcvdPk
attr title  "packets received, sum(packetBytes)"
scalar scenarioPRJP1.node[2].udp 	sentPk:count 	2607
attr interpolationmode  none
attr source  sentPk
attr title  "packets sent, count"
scalar scenarioPRJP1.node[2].udp 	sentPk:sum(packetBytes) 	1355640
attr interpolationmode  none
attr source  sentPk
attr title  "packets sent, sum(packetBytes)"
scalar scenarioPRJP1.node[2].networkLayer.arp 	failedARPResolution:count 	22
attr title  "ARP failed resolutions, count"
scalar scenarioPRJP1.node[2].networkLayer.arp 	completedARPResolution:count 	74
attr title  "ARP completed resolutions, count"
scalar scenarioPRJP1.node[2].networkLayer.arp 	initiatedARPResolution:count 	38
attr title  "ARP initiated resolutions, count"
scalar scenarioPRJP1.node[2].networkLayer.arp 	sentReply:count 	10
attr title  "ARP replies sent, count"
scalar scenarioPRJP1.node[2].networkLayer.arp 	sentReq:count 	96
attr title  "ARP request sent, count"
scalar scenarioPRJP1.node[2].mobility 	startTime 	0.1
scalar scenarioPRJP1.node[2].mobility 	totalTime 	949.9
scalar scenarioPRJP1.node[2].mobility 	stopTime 	950
scalar scenarioPRJP1.node[2].mobility 	minSpeed 	2.4754233935409e-13
scalar scenarioPRJP1.node[2].mobility 	maxSpeed 	18.961955825268
scalar scenarioPRJP1.node[2].mobility 	totalDistance 	9294.7333276333
scalar scenarioPRJP1.node[2].mobility 	totalCO2Emission 	2617.2218909645
scalar scenarioPRJP1.node[2].wlan.mgmt 	dataQueueLen:max 	3
attr interpolationmode  sample-hold
attr title  "data queue length, max"
scalar scenarioPRJP1.node[2].wlan.mgmt 	dataQueueLen:timeavg 	0
attr interpolationmode  sample-hold
attr title  "data queue length, timeavg"
scalar scenarioPRJP1.node[2].wlan.mgmt 	dropPkByQueue:count 	0
attr interpolationmode  none
attr source  dropPkByQueue
attr title  "packets dropped by queue, count"
scalar scenarioPRJP1.node[2].wlan.mgmt 	dropPkByQueue:sum(packetBytes) 	0
attr interpolationmode  none
attr source  dropPkByQueue
attr title  "packets dropped by queue, sum(packetBytes)"
scalar scenarioPRJP1.node[2].wlan.mac 	"number of received packets" 	890
scalar scenarioPRJP1.node[2].wlan.mac 	"number of collisions" 	606
scalar scenarioPRJP1.node[2].wlan.mac 	"number of internal collisions" 	1
scalar scenarioPRJP1.node[2].wlan.mac 	"number of retry for AC 0" 	2909
scalar scenarioPRJP1.node[2].wlan.mac 	"number of retry for AC 1" 	24
scalar scenarioPRJP1.node[2].wlan.mac 	"number of retry for AC 2" 	0
scalar scenarioPRJP1.node[2].wlan.mac 	"number of retry for AC 3" 	0
scalar scenarioPRJP1.node[2].wlan.mac 	"sent and received bits" 	13794784
scalar scenarioPRJP1.node[2].wlan.mac 	"sent packet within AC 0" 	159
scalar scenarioPRJP1.node[2].wlan.mac 	"sent packet within AC 1" 	8
scalar scenarioPRJP1.node[2].wlan.mac 	"sent packet within AC 2" 	0
scalar scenarioPRJP1.node[2].wlan.mac 	"sent packet within AC 3" 	0
scalar scenarioPRJP1.node[2].wlan.mac 	"sent in TXOP " 	0
scalar scenarioPRJP1.node[2].wlan.mac 	"sentWithoutRetry AC 0" 	140
scalar scenarioPRJP1.node[2].wlan.mac 	"sentWithoutRetry AC 1" 	8
scalar scenarioPRJP1.node[2].wlan.mac 	"sentWithoutRetry AC 2" 	0
scalar scenarioPRJP1.node[2].wlan.mac 	"sentWithoutRetry AC 3" 	0
scalar scenarioPRJP1.node[2].wlan.mac 	"numGivenUp AC 0" 	479
scalar scenarioPRJP1.node[2].wlan.mac 	"numGivenUp AC 1" 	4
scalar scenarioPRJP1.node[2].wlan.mac 	"numGivenUp AC 2" 	0
scalar scenarioPRJP1.node[2].wlan.mac 	"numGivenUp AC 3" 	0
scalar scenarioPRJP1.node[2].wlan.mac 	"numDropped AC 0" 	0
scalar scenarioPRJP1.node[2].wlan.mac 	"numDropped AC 1" 	0
scalar scenarioPRJP1.node[2].wlan.mac 	"numDropped AC 2" 	0
scalar scenarioPRJP1.node[2].wlan.mac 	"numDropped AC 3" 	0
scalar scenarioPRJP1.node[2].wlan.mac 	rcvdPkFromLL:count 	5621
attr interpolationmode  none
attr source  packetReceivedFromLower
attr title  "packets received from lower layer, count"
scalar scenarioPRJP1.node[2].wlan.mac 	rcvdPkFromLL:sum(packetBytes) 	3180720
attr interpolationmode  none
attr source  packetReceivedFromLower
attr title  "packets received from lower layer, sum(packetBytes)"
scalar scenarioPRJP1.node[2].wlan.mac 	sentDownPk:count 	6097
attr interpolationmode  none
attr source  packetSentToLower
attr title  "packets sent to lower layer, count"
scalar scenarioPRJP1.node[2].wlan.mac 	sentDownPk:sum(packetBytes) 	3654456
attr interpolationmode  none
attr source  packetSentToLower
attr title  "packets sent to lower layer, sum(packetBytes)"
scalar scenarioPRJP1.node[2].wlan.mac 	rcvdPkFromHL:count 	2275
attr interpolationmode  none
attr source  packetReceivedFromUpper
attr title  "packets received from higher layer, count"
scalar scenarioPRJP1.node[2].wlan.mac 	rcvdPkFromHL:sum(packetBytes) 	1995500
attr interpolationmode  none
attr source  packetReceivedFromUpper
attr title  "packets received from higher layer, sum(packetBytes)"
scalar scenarioPRJP1.node[2].wlan.mac 	passedUpPk:count 	1647
attr interpolationmode  none
attr source  packetSentToUpper
attr title  "packets passed to higher layer, count"
scalar scenarioPRJP1.node[2].wlan.mac 	passedUpPk:sum(packetBytes) 	1448064
attr interpolationmode  none
attr source  packetSentToUpper
attr title  "packets passed to higher layer, sum(packetBytes)"
statistic scenarioPRJP1.node[2].wlan.radio 	radioChannel:histogram
field count 1
field mean 3
field stddev -nan
field sum 3
field sqrsum 9
field min 3
field max 3
attr interpolationmode  sample-hold
attr source  radioChannelChanged
attr title  "Radio channel, histogram"
bin	-INF	0
bin	2	0
bin	3	1
bin	4	0
scalar scenarioPRJP1.node[2].wlan.radio 	transmissionState:count 	24388
attr interpolationmode  sample-hold
attr source  transmissionStateChanged
attr title  "Radio transmission state, count"
scalar scenarioPRJP1.node[2].wlan.radio 	receptionState:count 	23565
attr interpolationmode  sample-hold
attr source  receptionStateChanged
attr title  "Radio reception state, count"
scalar scenarioPRJP1.node[2].wlan.radio 	radioMode:count 	12196
attr interpolationmode  sample-hold
attr source  radioModeChanged
attr title  "Radio mode, count"
statistic scenarioPRJP1.node[2].wlan.radio 	symbolErrorRate:histogram
field count 0
field mean -nan
field stddev -nan
field sum 0
field sqrsum 0
field min -nan
field max -nan
attr source  symbolErrorRate
attr title  "Symbol error rate, histogram"
bin	-INF	0
bin	-0.5	0
bin	-0.46666666666667	0
bin	-0.43333333333333	0
bin	-0.4	0
bin	-0.36666666666667	0
bin	-0.33333333333333	0
bin	-0.3	0
bin	-0.26666666666667	0
bin	-0.23333333333333	0
bin	-0.2	0
bin	-0.16666666666667	0
bin	-0.13333333333333	0
bin	-0.1	0
bin	-0.066666666666667	0
bin	-0.033333333333333	0
bin	0	0
bin	0.033333333333333	0
bin	0.066666666666667	0
bin	0.1	0
bin	0.13333333333333	0
bin	0.16666666666667	0
bin	0.2	0
bin	0.23333333333333	0
bin	0.26666666666667	0
bin	0.3	0
bin	0.33333333333333	0
bin	0.36666666666667	0
bin	0.4	0
bin	0.43333333333333	0
bin	0.46666666666667	0
bin	0.5	0
statistic scenarioPRJP1.node[2].wlan.radio 	bitErrorRate:histogram
field count 0
field mean -nan
field stddev -nan
field sum 0
field sqrsum 0
field min -nan
field max -nan
attr source  bitErrorRate
attr title  "Bit error rate, histogram"
bin	-INF	0
bin	-0.5	0
bin	-0.46666666666667	0
bin	-0.43333333333333	0
bin	-0.4	0
bin	-0.36666666666667	0
bin	-0.33333333333333	0
bin	-0.3	0
bin	-0.26666666666667	0
bin	-0.23333333333333	0
bin	-0.2	0
bin	-0.16666666666667	0
bin	-0.13333333333333	0
bin	-0.1	0
bin	-0.066666666666667	0
bin	-0.033333333333333	0
bin	0	0
bin	0.033333333333333	0
bin	0.066666666666667	0
bin	0.1	0
bin	0.13333333333333	0
bin	0.16666666666667	0
bin	0.2	0
bin	0.23333333333333	0
bin	0.26666666666667	0
bin	0.3	0
bin	0.33333333333333	0
bin	0.36666666666667	0
bin	0.4	0
bin	0.43333333333333	0
bin	0.46666666666667	0
bin	0.5	0
statistic scenarioPRJP1.node[2].wlan.radio 	packetErrorRate:histogram
field count 5621
field mean 0.1059019720102
field stddev 0.30187007196887
field sum 595.27498466935
field sqrsum 575.16633153459
field min 0
field max 1
attr source  packetErrorRate
attr title  "Packet error rate, histogram"
bin	-INF	559
bin	-3.0426363650804e-09	0
bin	-2.636951516403e-09	0
bin	-2.2312666677256e-09	0
bin	-1.8255818190482e-09	0
bin	-1.4198969703709e-09	0
bin	-1.0142121216935e-09	0
bin	-6.0852727301608e-10	0
bin	-2.0284242433869e-10	4529
bin	2.0284242433869e-10	17
bin	6.0852727301608e-10	8
bin	1.0142121216935e-09	4
bin	1.4198969703709e-09	5
bin	1.8255818190482e-09	2
bin	2.2312666677256e-09	0
bin	2.636951516403e-09	5
bin	3.0426363650804e-09	2
bin	3.4483212137578e-09	5
bin	3.8540060624352e-09	1
bin	4.2596909111126e-09	1
bin	4.6653757597899e-09	1
bin	5.0710606084673e-09	2
bin	5.4767454571447e-09	0
bin	5.8824303058221e-09	1
bin	6.2881151544995e-09	1
bin	6.6938000031769e-09	1
bin	7.0994848518543e-09	3
bin	7.5051697005316e-09	1
bin	7.910854549209e-09	2
bin	8.3165393978864e-09	0
bin	8.7222242465638e-09	1
bin	9.1279090952412e-09	470
statistic scenarioPRJP1.node[2].wlan.radio 	minSNIR:histogram
field count 5621
field mean 7310.708534293
field stddev 49715.848463147
field sum 41093492.671261
field sqrsum 14191183154443
field min 0.00068486763246349
field max 1194189.2406285
attr source  minSNIR
attr title  "Min SNIR, histogram"
bin	-INF	0
bin	-201178.03471322	0
bin	-174353.68124732	0
bin	-147529.32778143	0
bin	-120704.97431553	0
bin	-93880.620849637	0
bin	-67056.267383742	0
bin	-40231.913917846	0
bin	-13407.56045195	5320
bin	13416.793013946	146
bin	40241.146479841	35
bin	67065.499945737	17
bin	93889.853411633	13
bin	120714.20687753	15
bin	147538.56034342	6
bin	174362.91380932	11
bin	201187.26727522	5
bin	228011.62074111	5
bin	254835.97420701	7
bin	281660.3276729	6
bin	308484.6811388	2
bin	335309.03460469	1
bin	362133.38807059	2
bin	388957.74153649	4
bin	415782.09500238	2
bin	442606.44846828	4
bin	469430.80193417	3
bin	496255.15540007	3
bin	523079.50886597	3
bin	549903.86233186	3
bin	576728.21579776	1
bin	603552.56926365	7
scalar scenarioPRJP1.node[2].lo0.lo 	droppedPkBitError:count 	0
attr interpolationmode  none
attr source  dropPkBitError
attr title  "packets dropped/bit error, count"
scalar scenarioPRJP1.node[2].lo0.lo 	droppedPkBitError:sum(packetBytes) 	0
attr interpolationmode  none
attr source  dropPkBitError
attr title  "packets dropped/bit error, sum(packetBytes)"
scalar scenarioPRJP1.node[2].lo0.lo 	rcvdPkFromHL:count 	2
attr interpolationmode  none
attr source  packetReceivedFromUpper
attr title  "packets received from higher layer, count"
scalar scenarioPRJP1.node[2].lo0.lo 	rcvdPkFromHL:sum(packetBytes) 	112
attr interpolationmode  none
attr source  packetReceivedFromUpper
attr title  "packets received from higher layer, sum(packetBytes)"
scalar scenarioPRJP1.node[2].lo0.lo 	passedUpPk:count 	2
attr interpolationmode  none
attr source  packetSentToUpper
attr title  "packets passed to higher layer, count"
scalar scenarioPRJP1.node[2].lo0.lo 	passedUpPk:sum(packetBytes) 	112
attr interpolationmode  none
attr source  packetSentToUpper
attr title  "packets passed to higher layer, sum(packetBytes)"
scalar scenarioPRJP1.node[7].app 	"Total sent" 	2618
scalar scenarioPRJP1.node[7].app 	"Total received" 	379
scalar scenarioPRJP1.node[7].app 	"Total deleted" 	0
scalar scenarioPRJP1.node[7].app 	dropPk:count 	0
attr interpolationmode  none
attr source  dropPk
attr title  "packets dropped, count"
scalar scenarioPRJP1.node[7].app 	dropPk:sum(packetBytes) 	0
attr interpolationmode  none
attr source  dropPk
attr title  "packets dropped, sum(packetBytes)"
scalar scenarioPRJP1.node[7].app 	outOfOrderPk:count 	0
attr interpolationmode  none
attr source  outOfOrderPk
attr title  "packets received out of order, count"
scalar scenarioPRJP1.node[7].app 	outOfOrderPk:sum(packetBytes) 	0
attr interpolationmode  none
attr source  outOfOrderPk
attr title  "packets received out of order, sum(packetBytes)"
scalar scenarioPRJP1.node[7].app 	rcvdPk:count 	379
attr interpolationmode  none
attr source  rcvdPk
attr title  "packets received, count"
scalar scenarioPRJP1.node[7].app 	rcvdPk:sum(packetBytes) 	194048
attr interpolationmode  none
attr source  rcvdPk
attr title  "packets received, sum(packetBytes)"
statistic scenarioPRJP1.node[7].app 	endToEndDelay:histogram
field count 379
field mean 0.062605852719153
field stddev 0.27495805496239
field sum 23.727618180559
field sqrsum 30.063018060917
field min 0.000945022689
field max 2.029126531794
attr interpolationmode  none
attr source  messageAge(rcvdPk)
attr title  "delay, histogram"
attr unit  s
bin	-INF	0
bin	-1.0126188163515	0
bin	-0.87747696891037	0
bin	-0.74233512146923	0
bin	-0.6071932740281	0
bin	-0.47205142658697	0
bin	-0.33690957914583	0
bin	-0.2017677317047	0
bin	-0.066625884263567	361
bin	0.068515963177567	2
bin	0.2036578106187	0
bin	0.33879965805983	0
bin	0.47394150550097	1
bin	0.6090833529421	0
bin	0.74422520038323	1
bin	0.87936704782437	1
bin	1.0145088952655	5
bin	1.1496507427066	2
bin	1.2847925901478	1
bin	1.4199344375889	0
bin	1.55507628503	0
bin	1.6902181324712	2
bin	1.8253599799123	1
bin	1.9605018273534	2
bin	2.0956436747946	0
bin	2.2307855222357	0
bin	2.3659273696768	0
bin	2.501069217118	0
bin	2.6362110645591	0
bin	2.7713529120002	0
bin	2.9064947594414	0
bin	3.0416366068825	0
scalar scenarioPRJP1.node[7].app 	sentPk:count 	2618
attr interpolationmode  none
attr source  sentPk
attr title  "packets sent, count"
scalar scenarioPRJP1.node[7].app 	sentPk:sum(packetBytes) 	1340416
attr interpolationmode  none
attr source  sentPk
attr title  "packets sent, sum(packetBytes)"
scalar scenarioPRJP1.node[7].udp 	droppedPkBadChecksum:count 	0
attr interpolationmode  none
attr title  "packets dropped (checksum error), count"
scalar scenarioPRJP1.node[7].udp 	droppedPkWrongPort:count 	0
attr interpolationmode  none
attr title  "packets dropped (wrong port), count"
scalar scenarioPRJP1.node[7].udp 	passedUpPk:count 	379
attr interpolationmode  none
attr title  "packets passed up, count"
scalar scenarioPRJP1.node[7].udp 	rcvdPk:count 	379
attr interpolationmode  none
attr source  rcvdPk
attr title  "packets received, count"
scalar scenarioPRJP1.node[7].udp 	rcvdPk:sum(packetBytes) 	197080
attr interpolationmode  none
attr source  rcvdPk
attr title  "packets received, sum(packetBytes)"
scalar scenarioPRJP1.node[7].udp 	sentPk:count 	2618
attr interpolationmode  none
attr source  sentPk
attr title  "packets sent, count"
scalar scenarioPRJP1.node[7].udp 	sentPk:sum(packetBytes) 	1361360
attr interpolationmode  none
attr source  sentPk
attr title  "packets sent, sum(packetBytes)"
scalar scenarioPRJP1.node[7].networkLayer.arp 	failedARPResolution:count 	17
attr title  "ARP failed resolutions, count"
scalar scenarioPRJP1.node[7].networkLayer.arp 	completedARPResolution:count 	94
attr title  "ARP completed resolutions, count"
scalar scenarioPRJP1.node[7].networkLayer.arp 	initiatedARPResolution:count 	31
attr title  "ARP initiated resolutions, count"
scalar scenarioPRJP1.node[7].networkLayer.arp 	sentReply:count 	21
attr title  "ARP replies sent, count"
scalar scenarioPRJP1.node[7].networkLayer.arp 	sentReq:count 	82
attr title  "ARP request sent, count"
scalar scenarioPRJP1.node[7].mobility 	startTime 	2.5
scalar scenarioPRJP1.node[7].mobility 	totalTime 	947.5
scalar scenarioPRJP1.node[7].mobility 	stopTime 	950
scalar scenarioPRJP1.node[7].mobility 	minSpeed 	2.4754236735877e-13
scalar scenarioPRJP1.node[7].mobility 	maxSpeed 	16.438728223941
scalar scenarioPRJP1.node[7].mobility 	totalDistance 	9368.3191209207
scalar scenarioPRJP1.node[7].mobility 	totalCO2Emission 	2381.4121857328
scalar scenarioPRJP1.node[7].wlan.mgmt 	dataQueueLen:max 	3
attr interpolationmode  sample-hold
attr title  "data queue length, max"
scalar scenarioPRJP1.node[7].wlan.mgmt 	dataQueueLen:timeavg 	0
attr interpolationmode  sample-hold
attr title  "data queue length, timeavg"
scalar scenarioPRJP1.node[7].wlan.mgmt 	dropPkByQueue:count 	0
attr interpolationmode  none
attr source  dropPkByQueue
attr title  "packets dropped by queue, count"
scalar scenarioPRJP1.node[7].wlan.mgmt 	dropPkByQueue:sum(packetBytes) 	0
attr interpolationmode  none
attr source  dropPkByQueue
attr title  "packets dropped by queue, sum(packetBytes)"
scalar scenarioPRJP1.node[7].wlan.mac 	"number of received packets" 	960
scalar scenarioPRJP1.node[7].wlan.mac 	"number of collisions" 	633
scalar scenarioPRJP1.node[7].wlan.mac 	"number of internal collisions" 	0
scalar scenarioPRJP1.node[7].wlan.mac 	"number of retry for AC 0" 	3930
scalar scenarioPRJP1.node[7].wlan.mac 	"number of retry for AC 1" 	78
scalar scenarioPRJP1.node[7].wlan.mac 	"number of retry for AC 2" 	0
scalar scenarioPRJP1.node[7].wlan.mac 	"number of retry for AC 3" 	0
scalar scenarioPRJP1.node[7].wlan.mac 	"sent and received bits" 	14173216
scalar scenarioPRJP1.node[7].wlan.mac 	"sent packet within AC 0" 	190
scalar scenarioPRJP1.node[7].wlan.mac 	"sent packet within AC 1" 	3
scalar scenarioPRJP1.node[7].wlan.mac 	"sent packet within AC 2" 	0
scalar scenarioPRJP1.node[7].wlan.mac 	"sent packet within AC 3" 	0
scalar scenarioPRJP1.node[7].wlan.mac 	"sent in TXOP " 	0
scalar scenarioPRJP1.node[7].wlan.mac 	"sentWithoutRetry AC 0" 	174
scalar scenarioPRJP1.node[7].wlan.mac 	"sentWithoutRetry AC 1" 	3
scalar scenarioPRJP1.node[7].wlan.mac 	"sentWithoutRetry AC 2" 	0
scalar scenarioPRJP1.node[7].wlan.mac 	"sentWithoutRetry AC 3" 	0
scalar scenarioPRJP1.node[7].wlan.mac 	"numGivenUp AC 0" 	650
scalar scenarioPRJP1.node[7].wlan.mac 	"numGivenUp AC 1" 	13
scalar scenarioPRJP1.node[7].wlan.mac 	"numGivenUp AC 2" 	0
scalar scenarioPRJP1.node[7].wlan.mac 	"numGivenUp AC 3" 	0
scalar scenarioPRJP1.node[7].wlan.mac 	"numDropped AC 0" 	0
scalar scenarioPRJP1.node[7].wlan.mac 	"numDropped AC 1" 	0
scalar scenarioPRJP1.node[7].wlan.mac 	"numDropped AC 2" 	0
scalar scenarioPRJP1.node[7].wlan.mac 	"numDropped AC 3" 	0
scalar scenarioPRJP1.node[7].wlan.mac 	rcvdPkFromLL:count 	7158
attr interpolationmode  none
attr source  packetReceivedFromLower
attr title  "packets received from lower layer, count"
scalar scenarioPRJP1.node[7].wlan.mac 	rcvdPkFromLL:sum(packetBytes) 	4031386
attr interpolationmode  none
attr source  packetReceivedFromLower
attr title  "packets received from lower layer, sum(packetBytes)"
scalar scenarioPRJP1.node[7].wlan.mac 	sentDownPk:count 	7464
attr interpolationmode  none
attr source  packetSentToLower
attr title  "packets sent to lower layer, count"
scalar scenarioPRJP1.node[7].wlan.mac 	sentDownPk:sum(packetBytes) 	4363448
attr interpolationmode  none
attr source  packetSentToLower
attr title  "packets sent to lower layer, sum(packetBytes)"
scalar scenarioPRJP1.node[7].wlan.mac 	rcvdPkFromHL:count 	2496
attr interpolationmode  none
attr source  packetReceivedFromUpper
attr title  "packets received from higher layer, count"
scalar scenarioPRJP1.node[7].wlan.mac 	rcvdPkFromHL:sum(packetBytes) 	2137520
attr interpolationmode  none
attr source  packetReceivedFromUpper
attr title  "packets received from higher layer, sum(packetBytes)"
scalar scenarioPRJP1.node[7].wlan.mac 	passedUpPk:count 	2119
attr interpolationmode  none
attr source  packetSentToUpper
attr title  "packets passed to higher layer, count"
scalar scenarioPRJP1.node[7].wlan.mac 	passedUpPk:sum(packetBytes) 	1884456
attr interpolationmode  none
attr source  packetSentToUpper
attr title  "packets passed to higher layer, sum(packetBytes)"
statistic scenarioPRJP1.node[7].wlan.radio 	radioChannel:histogram
field count 1
field mean 3
field stddev -nan
field sum 3
field sqrsum 9
field min 3
field max 3
attr interpolationmode  sample-hold
attr source  radioChannelChanged
attr title  "Radio channel, histogram"
bin	-INF	0
bin	2	0
bin	3	1
bin	4	0
scalar scenarioPRJP1.node[7].wlan.radio 	transmissionState:count 	29856
attr interpolationmode  sample-hold
attr source  transmissionStateChanged
attr title  "Radio transmission state, count"
scalar scenarioPRJP1.node[7].wlan.radio 	receptionState:count 	29379
attr interpolationmode  sample-hold
attr source  receptionStateChanged
attr title  "Radio reception state, count"
scalar scenarioPRJP1.node[7].wlan.radio 	radioMode:count 	14930
attr interpolationmode  sample-hold
attr source  radioModeChanged
attr title  "Radio mode, count"
statistic scenarioPRJP1.node[7].wlan.radio 	symbolErrorRate:histogram
field count 0
field mean -nan
field stddev -nan
field sum 0
field sqrsum 0
[...]
scalar scenarioPRJP1.node[4].wlan.mac 	passedUpPk:count 	2018
attr interpolationmode  none
attr source  packetSentToUpper
attr title  "packets passed to higher layer, count"
scalar scenarioPRJP1.node[4].wlan.mac 	passedUpPk:sum(packetBytes) 	1786792
attr interpolationmode  none
attr source  packetSentToUpper
attr title  "packets passed to higher layer, sum(packetBytes)"
statistic scenarioPRJP1.node[4].wlan.radio 	radioChannel:histogram
field count 1
field mean 3
field stddev -nan
field sum 3
field sqrsum 9
field min 3
field max 3
attr interpolationmode  sample-hold
attr source  radioChannelChanged
attr title  "Radio channel, histogram"
bin	-INF	0
bin	2	0
bin	3	1
bin	4	0
scalar scenarioPRJP1.node[4].wlan.radio 	transmissionState:count 	22592
attr interpolationmode  sample-hold
attr source  transmissionStateChanged
attr title  "Radio transmission state, count"
scalar scenarioPRJP1.node[4].wlan.radio 	receptionState:count 	24389
attr interpolationmode  sample-hold
attr source  receptionStateChanged
attr title  "Radio reception state, count"
scalar scenarioPRJP1.node[4].wlan.radio 	radioMode:count 	11298
attr interpolationmode  sample-hold
attr source  radioModeChanged
attr title  "Radio mode, count"
statistic scenarioPRJP1.node[4].wlan.radio 	symbolErrorRate:histogram
field count 0
field mean -nan
field stddev -nan
field sum 0
field sqrsum 0
field min -nan
field max -nan
attr source  symbolErrorRate
attr title  "Symbol error rate, histogram"
bin	-INF	0
bin	-0.5	0
bin	-0.46666666666667	0
bin	-0.43333333333333	0
bin	-0.4	0
bin	-0.36666666666667	0
bin	-0.33333333333333	0
bin	-0.3	0
bin	-0.26666666666667	0
bin	-0.23333333333333	0
bin	-0.2	0
bin	-0.16666666666667	0
bin	-0.13333333333333	0
bin	-0.1	0
bin	-0.066666666666667	0
bin	-0.033333333333333	0
bin	0	0
bin	0.033333333333333	0
bin	0.066666666666667	0
bin	0.1	0
bin	0.13333333333333	0
bin	0.16666666666667	0
bin	0.2	0
bin	0.23333333333333	0
bin	0.26666666666667	0
bin	0.3	0
bin	0.33333333333333	0
bin	0.36666666666667	0
bin	0.4	0
bin	0.43333333333333	0
bin	0.46666666666667	0
bin	0.5	0
statistic scenarioPRJP1.node[4].wlan.radio 	bitErrorRate:histogram
field count 0
field mean -nan
field stddev -nan
field sum 0
field sqrsum 0
field min -nan
field max -nan
attr source  bitErrorRate
attr title  "Bit error rate, histogram"
bin	-INF	0
bin	-0.5	0
bin	-0.46666666666667	0
bin	-0.43333333333333	0
bin	-0.4	0
bin	-0.36666666666667	0
bin	-0.33333333333333	0
bin	-0.3	0
bin	-0.26666666666667	0
bin	-0.23333333333333	0
bin	-0.2	0
bin	-0.16666666666667	0
bin	-0.13333333333333	0
bin	-0.1	0
bin	-0.066666666666667	0
bin	-0.033333333333333	0
bin	0	0
bin	0.033333333333333	0
bin	0.066666666666667	0
bin	0.1	0
bin	0.13333333333333	0
bin	0.16666666666667	0
bin	0.2	0
bin	0.23333333333333	0
bin	0.26666666666667	0
bin	0.3	0
bin	0.33333333333333	0
bin	0.36666666666667	0
bin	0.4	0
bin	0.43333333333333	0
bin	0.46666666666667	0
bin	0.5	0
statistic scenarioPRJP1.node[4].wlan.radio 	packetErrorRate:histogram
field count 6475
field mean 0.093783262163016
field stddev 0.28563959268175
field sum 607.24662250553
field sqrsum 585.16307969452
field min 0
field max 1
attr source  packetErrorRate
attr title  "Packet error rate, histogram"
bin	-INF	0
bin	-3.6513662849957e-06	0
bin	-3.1645174469963e-06	0
bin	-2.6776686089969e-06	0
bin	-2.1908197709974e-06	0
bin	-1.703970932998e-06	0
bin	-1.2171220949986e-06	0
bin	-7.3027325699915e-07	0
bin	-2.4342441899972e-07	5461
bin	2.4342441899972e-07	25
bin	7.3027325699915e-07	12
bin	1.2171220949986e-06	7
bin	1.703970932998e-06	10
bin	2.1908197709974e-06	4
bin	2.6776686089969e-06	4
bin	3.1645174469963e-06	4
bin	3.6513662849957e-06	7
bin	4.1382151229952e-06	7
bin	4.6250639609946e-06	4
bin	5.111912798994e-06	2
bin	5.5987616369935e-06	3
bin	6.0856104749929e-06	2
bin	6.5724593129923e-06	2
bin	7.0593081509918e-06	1
bin	7.5461569889912e-06	0
bin	8.0330058269906e-06	2
bin	8.5198546649901e-06	2
bin	9.0067035029895e-06	2
bin	9.4935523409889e-06	2
bin	9.9804011789884e-06	1
bin	1.0467250016988e-05	2
bin	1.0954098854987e-05	909
statistic scenarioPRJP1.node[4].wlan.radio 	minSNIR:histogram
field count 6475
field mean 16616.792645235
field stddev 74449.45206509
field sum 107593732.37789
field sqrsum 37671437930267
field min 0.00029591784695372
field max 1994249.4234309
attr source  minSNIR
attr title  "Min SNIR, histogram"
bin	-INF	0
bin	-33278.153675417	0
bin	-28840.007538358	0
bin	-24401.8614013	0
bin	-19963.715264241	0
bin	-15525.569127182	0
bin	-11087.422990124	0
bin	-6649.2768530649	0
bin	-2211.1307160062	5216
bin	2227.0154210524	380
bin	6665.1615581111	147
bin	11103.30769517	58
bin	15541.453832228	38
bin	19979.599969287	35
bin	24417.746106346	26
bin	28855.892243404	34
bin	33294.038380463	27
bin	37732.184517522	15
bin	42170.33065458	18
bin	46608.476791639	16
bin	51046.622928698	11
bin	55484.769065756	18
bin	59922.915202815	17
bin	64361.061339874	10
bin	68799.207476932	15
bin	73237.353613991	11
bin	77675.49975105	11
bin	82113.645888108	8
bin	86551.792025167	14
bin	90989.938162226	12
bin	95428.084299284	15
bin	99866.230436343	323
scalar scenarioPRJP1.node[4].lo0.lo 	droppedPkBitError:count 	0
attr interpolationmode  none
attr source  dropPkBitError
attr title  "packets dropped/bit error, count"
scalar scenarioPRJP1.node[4].lo0.lo 	droppedPkBitError:sum(packetBytes) 	0
attr interpolationmode  none
attr source  dropPkBitError
attr title  "packets dropped/bit error, sum(packetBytes)"
scalar scenarioPRJP1.node[4].lo0.lo 	rcvdPkFromHL:count 	3
attr interpolationmode  none
attr source  packetReceivedFromUpper
attr title  "packets received from higher layer, count"
scalar scenarioPRJP1.node[4].lo0.lo 	rcvdPkFromHL:sum(packetBytes) 	168
attr interpolationmode  none
attr source  packetReceivedFromUpper
attr title  "packets received from higher layer, sum(packetBytes)"
scalar scenarioPRJP1.node[4].lo0.lo 	passedUpPk:count 	3
attr interpolationmode  none
attr source  packetSentToUpper
attr title  "packets passed to higher layer, count"
scalar scenarioPRJP1.node[4].lo0.lo 	passedUpPk:sum(packetBytes) 	168
attr interpolationmode  none
attr source  packetSentToUpper
attr title  "packets passed to higher layer, sum(packetBytes)"
scalar scenarioPRJP1.node[9].app 	"Total sent" 	2609
scalar scenarioPRJP1.node[9].app 	"Total received" 	321
scalar scenarioPRJP1.node[9].app 	"Total deleted" 	0
scalar scenarioPRJP1.node[9].app 	dropPk:count 	0
attr interpolationmode  none
attr source  dropPk
attr title  "packets dropped, count"
scalar scenarioPRJP1.node[9].app 	dropPk:sum(packetBytes) 	0
attr interpolationmode  none
attr source  dropPk
attr title  "packets dropped, sum(packetBytes)"
scalar scenarioPRJP1.node[9].app 	outOfOrderPk:count 	1
attr interpolationmode  none
attr source  outOfOrderPk
attr title  "packets received out of order, count"
scalar scenarioPRJP1.node[9].app 	outOfOrderPk:sum(packetBytes) 	512
attr interpolationmode  none
attr source  outOfOrderPk
attr title  "packets received out of order, sum(packetBytes)"
scalar scenarioPRJP1.node[9].app 	rcvdPk:count 	321
attr interpolationmode  none
attr source  rcvdPk
attr title  "packets received, count"
scalar scenarioPRJP1.node[9].app 	rcvdPk:sum(packetBytes) 	164352
attr interpolationmode  none
attr source  rcvdPk
attr title  "packets received, sum(packetBytes)"
statistic scenarioPRJP1.node[9].app 	endToEndDelay:histogram
field count 321
field mean 0.050396415771639
field stddev 0.26275847966217
field sum 16.177249462696
field sqrsum 22.908721352963
field min 0.000945083332
field max 3.012926705944
attr interpolationmode  none
attr source  messageAge(rcvdPk)
attr title  "delay, histogram"
attr unit  s
bin	-INF	0
bin	-0.662479731325	0
bin	-0.57402308937073	0
bin	-0.48556644741647	0
bin	-0.3971098054622	0
bin	-0.30865316350793	0
bin	-0.22019652155367	0
bin	-0.1317398795994	0
bin	-0.043283237645133	307
bin	0.045173404309133	2
bin	0.1336300462634	0
bin	0.22208668821767	2
bin	0.31054333017193	1
bin	0.3989999721262	0
bin	0.48745661408047	1
bin	0.57591325603473	0
bin	0.664369897989	0
bin	0.75282653994327	1
bin	0.84128318189753	0
bin	0.9297398238518	0
bin	1.0181964658061	2
bin	1.1066531077603	1
bin	1.1951097497146	0
bin	1.2835663916689	1
bin	1.3720230336231	0
bin	1.4604796755774	0
bin	1.5489363175317	0
bin	1.6373929594859	0
bin	1.7258496014402	1
bin	1.8143062433945	0
bin	1.9027628853487	0
bin	1.991219527303	2
scalar scenarioPRJP1.node[9].app 	sentPk:count 	2609
attr interpolationmode  none
attr source  sentPk
attr title  "packets sent, count"
scalar scenarioPRJP1.node[9].app 	sentPk:sum(packetBytes) 	1335808
attr interpolationmode  none
attr source  sentPk
attr title  "packets sent, sum(packetBytes)"
scalar scenarioPRJP1.node[9].udp 	droppedPkBadChecksum:count 	0
attr interpolationmode  none
attr title  "packets dropped (checksum error), count"
scalar scenarioPRJP1.node[9].udp 	droppedPkWrongPort:count 	0
attr interpolationmode  none
attr title  "packets dropped (wrong port), count"
scalar scenarioPRJP1.node[9].udp 	passedUpPk:count 	322
attr interpolationmode  none
attr title  "packets passed up, count"
scalar scenarioPRJP1.node[9].udp 	rcvdPk:count 	322
attr interpolationmode  none
attr source  rcvdPk
attr title  "packets received, count"
scalar scenarioPRJP1.node[9].udp 	rcvdPk:sum(packetBytes) 	167440
attr interpolationmode  none
attr source  rcvdPk
attr title  "packets received, sum(packetBytes)"
scalar scenarioPRJP1.node[9].udp 	sentPk:count 	2609
attr interpolationmode  none
attr source  sentPk
attr title  "packets sent, count"
scalar scenarioPRJP1.node[9].udp 	sentPk:sum(packetBytes) 	1356680
attr interpolationmode  none
attr source  sentPk
attr title  "packets sent, sum(packetBytes)"
scalar scenarioPRJP1.node[9].networkLayer.arp 	failedARPResolution:count 	33
attr title  "ARP failed resolutions, count"
scalar scenarioPRJP1.node[9].networkLayer.arp 	completedARPResolution:count 	80
attr title  "ARP completed resolutions, count"
scalar scenarioPRJP1.node[9].networkLayer.arp 	initiatedARPResolution:count 	54
attr title  "ARP initiated resolutions, count"
scalar scenarioPRJP1.node[9].networkLayer.arp 	sentReply:count 	11
attr title  "ARP replies sent, count"
scalar scenarioPRJP1.node[9].networkLayer.arp 	sentReq:count 	141
attr title  "ARP request sent, count"
scalar scenarioPRJP1.node[9].mobility 	startTime 	2.5
scalar scenarioPRJP1.node[9].mobility 	totalTime 	947.5
scalar scenarioPRJP1.node[9].mobility 	stopTime 	950
scalar scenarioPRJP1.node[9].mobility 	minSpeed 	2.4755380258322e-13
scalar scenarioPRJP1.node[9].mobility 	maxSpeed 	19.702875523036
scalar scenarioPRJP1.node[9].mobility 	totalDistance 	9723.3397143367
scalar scenarioPRJP1.node[9].mobility 	totalCO2Emission 	2554.0673896062
scalar scenarioPRJP1.node[9].wlan.mgmt 	dataQueueLen:max 	3
attr interpolationmode  sample-hold
attr title  "data queue length, max"
scalar scenarioPRJP1.node[9].wlan.mgmt 	dataQueueLen:timeavg 	0
attr interpolationmode  sample-hold
attr title  "data queue length, timeavg"
scalar scenarioPRJP1.node[9].wlan.mgmt 	dropPkByQueue:count 	0
attr interpolationmode  none
attr source  dropPkByQueue
attr title  "packets dropped by queue, count"
scalar scenarioPRJP1.node[9].wlan.mgmt 	dropPkByQueue:sum(packetBytes) 	0
attr interpolationmode  none
attr source  dropPkByQueue
attr title  "packets dropped by queue, sum(packetBytes)"
scalar scenarioPRJP1.node[9].wlan.mac 	"number of received packets" 	1026
scalar scenarioPRJP1.node[9].wlan.mac 	"number of collisions" 	532
scalar scenarioPRJP1.node[9].wlan.mac 	"number of internal collisions" 	2
scalar scenarioPRJP1.node[9].wlan.mac 	"number of retry for AC 0" 	3678
scalar scenarioPRJP1.node[9].wlan.mac 	"number of retry for AC 1" 	90
scalar scenarioPRJP1.node[9].wlan.mac 	"number of retry for AC 2" 	0
scalar scenarioPRJP1.node[9].wlan.mac 	"number of retry for AC 3" 	0
scalar scenarioPRJP1.node[9].wlan.mac 	"sent and received bits" 	14161632
scalar scenarioPRJP1.node[9].wlan.mac 	"sent packet within AC 0" 	112
scalar scenarioPRJP1.node[9].wlan.mac 	"sent packet within AC 1" 	5
scalar scenarioPRJP1.node[9].wlan.mac 	"sent packet within AC 2" 	0
scalar scenarioPRJP1.node[9].wlan.mac 	"sent packet within AC 3" 	0
scalar scenarioPRJP1.node[9].wlan.mac 	"sent in TXOP " 	0
scalar scenarioPRJP1.node[9].wlan.mac 	"sentWithoutRetry AC 0" 	101
scalar scenarioPRJP1.node[9].wlan.mac 	"sentWithoutRetry AC 1" 	5
scalar scenarioPRJP1.node[9].wlan.mac 	"sentWithoutRetry AC 2" 	0
scalar scenarioPRJP1.node[9].wlan.mac 	"sentWithoutRetry AC 3" 	0
scalar scenarioPRJP1.node[9].wlan.mac 	"numGivenUp AC 0" 	610
scalar scenarioPRJP1.node[9].wlan.mac 	"numGivenUp AC 1" 	15
scalar scenarioPRJP1.node[9].wlan.mac 	"numGivenUp AC 2" 	0
scalar scenarioPRJP1.node[9].wlan.mac 	"numGivenUp AC 3" 	0
scalar scenarioPRJP1.node[9].wlan.mac 	"numDropped AC 0" 	0
scalar scenarioPRJP1.node[9].wlan.mac 	"numDropped AC 1" 	0
scalar scenarioPRJP1.node[9].wlan.mac 	"numDropped AC 2" 	0
scalar scenarioPRJP1.node[9].wlan.mac 	"numDropped AC 3" 	0
scalar scenarioPRJP1.node[9].wlan.mac 	rcvdPkFromLL:count 	4947
attr interpolationmode  none
attr source  packetReceivedFromLower
attr title  "packets received from lower layer, count"
scalar scenarioPRJP1.node[9].wlan.mac 	rcvdPkFromLL:sum(packetBytes) 	2831424
attr interpolationmode  none
attr source  packetReceivedFromLower
attr title  "packets received from lower layer, sum(packetBytes)"
scalar scenarioPRJP1.node[9].wlan.mac 	sentDownPk:count 	7271
attr interpolationmode  none
attr source  packetSentToLower
attr title  "packets sent to lower layer, count"
scalar scenarioPRJP1.node[9].wlan.mac 	sentDownPk:sum(packetBytes) 	4223540
attr interpolationmode  none
attr source  packetSentToLower
attr title  "packets sent to lower layer, sum(packetBytes)"
scalar scenarioPRJP1.node[9].wlan.mac 	rcvdPkFromHL:count 	2479
attr interpolationmode  none
attr source  packetReceivedFromUpper
attr title  "packets received from higher layer, count"
scalar scenarioPRJP1.node[9].wlan.mac 	rcvdPkFromHL:sum(packetBytes) 	2117312
attr interpolationmode  none
attr source  packetReceivedFromUpper
attr title  "packets received from higher layer, sum(packetBytes)"
scalar scenarioPRJP1.node[9].wlan.mac 	passedUpPk:count 	1800
attr interpolationmode  none
attr source  packetSentToUpper
attr title  "packets passed to higher layer, count"
scalar scenarioPRJP1.node[9].wlan.mac 	passedUpPk:sum(packetBytes) 	1574096
attr interpolationmode  none
attr source  packetSentToUpper
attr title  "packets passed to higher layer, sum(packetBytes)"
statistic scenarioPRJP1.node[9].wlan.radio 	radioChannel:histogram
field count 1
field mean 3
field stddev -nan
field sum 3
field sqrsum 9
field min 3
field max 3
attr interpolationmode  sample-hold
attr source  radioChannelChanged
attr title  "Radio channel, histogram"
bin	-INF	0
bin	2	0
bin	3	1
bin	4	0
scalar scenarioPRJP1.node[9].wlan.radio 	transmissionState:count 	29084
attr interpolationmode  sample-hold
attr source  transmissionStateChanged
attr title  "Radio transmission state, count"
scalar scenarioPRJP1.node[9].wlan.radio 	receptionState:count 	24497
attr interpolationmode  sample-hold
attr source  receptionStateChanged
attr title  "Radio reception state, count"
scalar scenarioPRJP1.node[9].wlan.radio 	radioMode:count 	14544
attr interpolationmode  sample-hold
attr source  radioModeChanged
attr title  "Radio mode, count"
statistic scenarioPRJP1.node[9].wlan.radio 	symbolErrorRate:histogram
field count 0
field mean -nan
field stddev -nan
field sum 0
field sqrsum 0
field min -nan
field max -nan
attr source  symbolErrorRate
attr title  "Symbol error rate, histogram"
bin	-INF	0
bin	-0.5	0
bin	-0.46666666666667	0
bin	-0.43333333333333	0
bin	-0.4	0
bin	-0.36666666666667	0
bin	-0.33333333333333	0
bin	-0.3	0
bin	-0.26666666666667	0
bin	-0.23333333333333	0
bin	-0.2	0
bin	-0.16666666666667	0
bin	-0.13333333333333	0
bin	-0.1	0
bin	-0.066666666666667	0
bin	-0.033333333333333	0
bin	0	0
bin	0.033333333333333	0
bin	0.066666666666667	0
bin	0.1	0
bin	0.13333333333333	0
bin	0.16666666666667	0
bin	0.2	0
bin	0.23333333333333	0
bin	0.26666666666667	0
bin	0.3	0
bin	0.33333333333333	0
bin	0.36666666666667	0
bin	0.4	0
bin	0.43333333333333	0
bin	0.46666666666667	0
bin	0.5	0
statistic scenarioPRJP1.node[9].wlan.radio 	bitErrorRate:histogram
field count 0
field mean -nan
field stddev -nan
field sum 0
field sqrsum 0
field min -nan
field max -nan
attr source  bitErrorRate
attr title  "Bit error rate, histogram"
bin	-INF	0
bin	-0.5	0
bin	-0.46666666666667	0
bin	-0.43333333333333	0
bin	-0.4	0
bin	-0.36666666666667	0
bin	-0.33333333333333	0
bin	-0.3	0
bin	-0.26666666666667	0
bin	-0.23333333333333	0
bin	-0.2	0
bin	-0.16666666666667	0
bin	-0.13333333333333	0
bin	-0.1	0
bin	-0.066666666666667	0
bin	-0.033333333333333	0
bin	0	0
bin	0.033333333333333	0
bin	0.066666666666667	0
bin	0.1	0
bin	0.13333333333333	0
bin	0.16666666666667	0
bin	0.2	0
bin	0.23333333333333	0
bin	0.26666666666667	0
bin	0.3	0
bin	0.33333333333333	0
bin	0.36666666666667	0
bin	0.4	0
bin	0.43333333333333	0
bin	0.46666666666667	0
bin	0.5	0
statistic scenarioPRJP1.node[9].wlan.radio 	packetErrorRate:histogram
field count 4947
field mean 0.10407884202805
field stddev 0.29680462504506
field sum 514.87803151275
field sqrsum 489.29581533203
field min 0
field max 1
attr source  packetErrorRate
attr title  "Packet error rate, histogram"
bin	-INF	0
bin	-0.5	0
bin	-0.46666666666667	0
bin	-0.43333333333333	0
bin	-0.4	0
bin	-0.36666666666667	0
bin	-0.33333333333333	0
bin	-0.3	0
bin	-0.26666666666667	0
bin	-0.23333333333333	0
bin	-0.2	0
bin	-0.16666666666667	0
bin	-0.13333333333333	0
bin	-0.1	0
bin	-0.066666666666667	0
bin	-0.033333333333333	0
bin	0	4334
bin	0.033333333333333	28
bin	0.066666666666667	13
bin	0.1	7
bin	0.13333333333333	5
bin	0.16666666666667	7
bin	0.2	4
bin	0.23333333333333	8
bin	0.26666666666667	5
bin	0.3	4
bin	0.33333333333333	7
bin	0.36666666666667	3
bin	0.4	0
bin	0.43333333333333	6
bin	0.46666666666667	5
bin	0.5	511
statistic scenarioPRJP1.node[9].wlan.radio 	minSNIR:histogram
field count 4947
field mean 2740.9197145332
field stddev 25484.471852626
field sum 13559329.827796
field sqrsum 3249385813974.4
field min 0.0069184337505417
field max 1037372.4752341
attr source  minSNIR
attr title  "Min SNIR, histogram"
bin	-INF	0
bin	-45739.347846905	0
bin	-39622.942713311	0
bin	-33506.537579717	0
bin	-27390.132446123	0
bin	-21273.727312529	0
bin	-15157.322178935	0
bin	-9040.9170453405	0
bin	-2924.5119117463	4589
bin	3191.8932218478	157
bin	9308.2983554419	69
bin	15424.703489036	46
bin	21541.10862263	23
bin	27657.513756224	13
bin	33773.918889818	4
bin	39890.324023413	2
bin	46006.729157007	5
bin	52123.134290601	3
bin	58239.539424195	1
bin	64355.944557789	1
bin	70472.349691383	4
bin	76588.754824977	1
bin	82705.159958571	0
bin	88821.565092166	1
bin	94937.97022576	2
bin	101054.37535935	0
bin	107170.78049295	1
bin	113287.18562654	2
bin	119403.59076014	0
bin	125519.99589373	2
bin	131636.40102732	0
bin	137752.80616092	21
scalar scenarioPRJP1.node[9].lo0.lo 	droppedPkBitError:count 	0
attr interpolationmode  none
attr source  dropPkBitError
attr title  "packets dropped/bit error, count"
scalar scenarioPRJP1.node[9].lo0.lo 	droppedPkBitError:sum(packetBytes) 	0
attr interpolationmode  none
attr source  dropPkBitError
attr title  "packets dropped/bit error, sum(packetBytes)"
scalar scenarioPRJP1.node[9].lo0.lo 	rcvdPkFromHL:count 	0
attr interpolationmode  none
attr source  packetReceivedFromUpper
attr title  "packets received from higher layer, count"
scalar scenarioPRJP1.node[9].lo0.lo 	rcvdPkFromHL:sum(packetBytes) 	0
attr interpolationmode  none
attr source  packetReceivedFromUpper
attr title  "packets received from higher layer, sum(packetBytes)"
scalar scenarioPRJP1.node[9].lo0.lo 	passedUpPk:count 	0
attr interpolationmode  none
attr source  packetSentToUpper
attr title  "packets passed to higher layer, count"
scalar scenarioPRJP1.node[9].lo0.lo 	passedUpPk:sum(packetBytes) 	0
attr interpolationmode  none
attr source  packetSentToUpper
attr title  "packets passed to higher layer, sum(packetBytes)"
