version 2
run OLSR-ETX-TRG-75n-2-20150805-11:42:14-3378
attr configname OLSR-ETX-TRG-75n
attr datetime 20150805-11:42:14
attr experiment OLSR-ETX-TRG-75n
attr inifile omnetpp.ini
attr iterationvars ""
attr iterationvars2 $repetition=2
attr measurement ""
attr network Prj_Part1_propag.scenarioPRJP1
attr processid 3378
attr repetition 2
attr replication #2
attr resultdir results
attr runnumber 2
attr seedset 2

scalar scenarioPRJP1.radioMedium.propagation 	"Arrival computation count" 	39607923
scalar scenarioPRJP1.radioMedium 	"transmission count" 	535340
scalar scenarioPRJP1.radioMedium 	"radio frame send count" 	39607858
scalar scenarioPRJP1.radioMedium 	"reception computation count" 	39327069
scalar scenarioPRJP1.radioMedium 	"interference computation count" 	109353808
scalar scenarioPRJP1.radioMedium 	"reception decision computation count" 	2686669
scalar scenarioPRJP1.radioMedium 	"listening decision computation count" 	67883413
scalar scenarioPRJP1.radioMedium 	"reception cache hit" 	85.636698854839
attr unit  %
scalar scenarioPRJP1.radioMedium 	"interference cache hit" 	50
attr unit  %
scalar scenarioPRJP1.radioMedium 	"noise cache hit" 	0
attr unit  %
scalar scenarioPRJP1.radioMedium 	"snir cache hit" 	0
attr unit  %
scalar scenarioPRJP1.radioMedium 	"reception decision cache hit" 	0
attr unit  %
scalar scenarioPRJP1.node[0].app 	"Total sent" 	2610
scalar scenarioPRJP1.node[0].app 	"Total received" 	161
scalar scenarioPRJP1.node[0].app 	"Total deleted" 	0
scalar scenarioPRJP1.node[0].app 	dropPk:count 	0
attr interpolationmode  none
attr source  dropPk
attr title  "packets dropped, count"
scalar scenarioPRJP1.node[0].app 	dropPk:sum(packetBytes) 	0
attr interpolationmode  none
attr source  dropPk
attr title  "packets dropped, sum(packetBytes)"
scalar scenarioPRJP1.node[0].app 	outOfOrderPk:count 	0
attr interpolationmode  none
attr source  outOfOrderPk
attr title  "packets received out of order, count"
scalar scenarioPRJP1.node[0].app 	outOfOrderPk:sum(packetBytes) 	0
attr interpolationmode  none
attr source  outOfOrderPk
attr title  "packets received out of order, sum(packetBytes)"
scalar scenarioPRJP1.node[0].app 	rcvdPk:count 	161
attr interpolationmode  none
attr source  rcvdPk
attr title  "packets received, count"
scalar scenarioPRJP1.node[0].app 	rcvdPk:sum(packetBytes) 	82432
attr interpolationmode  none
attr source  rcvdPk
attr title  "packets received, sum(packetBytes)"
statistic scenarioPRJP1.node[0].app 	endToEndDelay:histogram
field count 161
field mean 0.071622779944062
field stddev 0.27025520262781
field sum 11.531267570994
field sqrsum 12.511961367297
field min 0.000945011016
field max 2.002270367484
attr interpolationmode  none
attr source  messageAge(rcvdPk)
attr title  "delay, histogram"
attr unit  s
bin	-INF	0
bin	-0.999717645777	0
bin	-0.86629595629873	0
bin	-0.73287426682047	0
bin	-0.5994525773422	0
bin	-0.46603088786393	0
bin	-0.33260919838567	0
bin	-0.1991875089074	0
bin	-0.065765819429133	150
bin	0.067655870049133	2
bin	0.2010775595274	0
bin	0.33449924900567	0
bin	0.46792093848393	0
bin	0.6013426279622	0
bin	0.73476431744047	0
bin	0.86818600691873	0
bin	1.001607696397	8
bin	1.1350293858753	0
bin	1.2684510753535	0
bin	1.4018727648318	0
bin	1.5352944543101	0
bin	1.6687161437883	0
bin	1.8021378332666	0
bin	1.9355595227449	1
bin	2.0689812122231	0
bin	2.2024029017014	0
bin	2.3358245911797	0
bin	2.4692462806579	0
bin	2.6026679701362	0
bin	2.7360896596145	0
bin	2.8695113490927	0
bin	3.002933038571	0
scalar scenarioPRJP1.node[0].app 	sentPk:count 	2610
attr interpolationmode  none
attr source  sentPk
attr title  "packets sent, count"
scalar scenarioPRJP1.node[0].app 	sentPk:sum(packetBytes) 	1336320
attr interpolationmode  none
attr source  sentPk
attr title  "packets sent, sum(packetBytes)"
scalar scenarioPRJP1.node[0].udp 	droppedPkBadChecksum:count 	0
attr interpolationmode  none
attr title  "packets dropped (checksum error), count"
scalar scenarioPRJP1.node[0].udp 	droppedPkWrongPort:count 	0
attr interpolationmode  none
attr title  "packets dropped (wrong port), count"
scalar scenarioPRJP1.node[0].udp 	passedUpPk:count 	161
attr interpolationmode  none
attr title  "packets passed up, count"
scalar scenarioPRJP1.node[0].udp 	rcvdPk:count 	161
attr interpolationmode  none
attr source  rcvdPk
attr title  "packets received, count"
scalar scenarioPRJP1.node[0].udp 	rcvdPk:sum(packetBytes) 	83720
attr interpolationmode  none
attr source  rcvdPk
attr title  "packets received, sum(packetBytes)"
scalar scenarioPRJP1.node[0].udp 	sentPk:count 	2610
attr interpolationmode  none
attr source  sentPk
attr title  "packets sent, count"
scalar scenarioPRJP1.node[0].udp 	sentPk:sum(packetBytes) 	1357200
attr interpolationmode  none
attr source  sentPk
attr title  "packets sent, sum(packetBytes)"
scalar scenarioPRJP1.node[0].networkLayer.arp 	failedARPResolution:count 	6
attr title  "ARP failed resolutions, count"
scalar scenarioPRJP1.node[0].networkLayer.arp 	completedARPResolution:count 	336
attr title  "ARP completed resolutions, count"
scalar scenarioPRJP1.node[0].networkLayer.arp 	initiatedARPResolution:count 	54
attr title  "ARP initiated resolutions, count"
scalar scenarioPRJP1.node[0].networkLayer.arp 	sentReply:count 	54
attr title  "ARP replies sent, count"
scalar scenarioPRJP1.node[0].networkLayer.arp 	sentReq:count 	79
attr title  "ARP request sent, count"
scalar scenarioPRJP1.node[0].mobility 	startTime 	0.1
scalar scenarioPRJP1.node[0].mobility 	totalTime 	949.9
scalar scenarioPRJP1.node[0].mobility 	stopTime 	950
scalar scenarioPRJP1.node[0].mobility 	minSpeed 	2.4758492225336e-13
scalar scenarioPRJP1.node[0].mobility 	maxSpeed 	18.826699377927
scalar scenarioPRJP1.node[0].mobility 	totalDistance 	10799.475750277
scalar scenarioPRJP1.node[0].mobility 	totalCO2Emission 	2816.1643926998
scalar scenarioPRJP1.node[0].wlan.mgmt 	dataQueueLen:max 	0
attr interpolationmode  sample-hold
attr title  "data queue length, max"
scalar scenarioPRJP1.node[0].wlan.mgmt 	dataQueueLen:timeavg 	0
attr interpolationmode  sample-hold
attr title  "data queue length, timeavg"
scalar scenarioPRJP1.node[0].wlan.mgmt 	dropPkByQueue:count 	0
attr interpolationmode  none
attr source  dropPkByQueue
attr title  "packets dropped by queue, count"
scalar scenarioPRJP1.node[0].wlan.mgmt 	dropPkByQueue:sum(packetBytes) 	0
attr interpolationmode  none
attr source  dropPkByQueue
attr title  "packets dropped by queue, sum(packetBytes)"
scalar scenarioPRJP1.node[0].wlan.mac 	"number of received packets" 	1419
scalar scenarioPRJP1.node[0].wlan.mac 	"number of collisions" 	2981
scalar scenarioPRJP1.node[0].wlan.mac 	"number of internal collisions" 	0
scalar scenarioPRJP1.node[0].wlan.mac 	"number of retry for AC 0" 	2267
scalar scenarioPRJP1.node[0].wlan.mac 	"number of retry for AC 1" 	66
scalar scenarioPRJP1.node[0].wlan.mac 	"number of retry for AC 2" 	0
scalar scenarioPRJP1.node[0].wlan.mac 	"number of retry for AC 3" 	0
scalar scenarioPRJP1.node[0].wlan.mac 	"sent and received bits" 	25787424
scalar scenarioPRJP1.node[0].wlan.mac 	"sent packet within AC 0" 	522
scalar scenarioPRJP1.node[0].wlan.mac 	"sent packet within AC 1" 	38
scalar scenarioPRJP1.node[0].wlan.mac 	"sent packet within AC 2" 	0
scalar scenarioPRJP1.node[0].wlan.mac 	"sent packet within AC 3" 	0
scalar scenarioPRJP1.node[0].wlan.mac 	"sent in TXOP " 	0
scalar scenarioPRJP1.node[0].wlan.mac 	"sentWithoutRetry AC 0" 	502
scalar scenarioPRJP1.node[0].wlan.mac 	"sentWithoutRetry AC 1" 	38
scalar scenarioPRJP1.node[0].wlan.mac 	"sentWithoutRetry AC 2" 	0
scalar scenarioPRJP1.node[0].wlan.mac 	"sentWithoutRetry AC 3" 	0
scalar scenarioPRJP1.node[0].wlan.mac 	"numGivenUp AC 0" 	369
scalar scenarioPRJP1.node[0].wlan.mac 	"numGivenUp AC 1" 	11
scalar scenarioPRJP1.node[0].wlan.mac 	"numGivenUp AC 2" 	0
scalar scenarioPRJP1.node[0].wlan.mac 	"numGivenUp AC 3" 	0
scalar scenarioPRJP1.node[0].wlan.mac 	"numDropped AC 0" 	0
scalar scenarioPRJP1.node[0].wlan.mac 	"numDropped AC 1" 	0
scalar scenarioPRJP1.node[0].wlan.mac 	"numDropped AC 2" 	0
scalar scenarioPRJP1.node[0].wlan.mac 	"numDropped AC 3" 	0
scalar scenarioPRJP1.node[0].wlan.mac 	rcvdPkFromLL:count 	31382
attr interpolationmode  none
attr source  packetReceivedFromLower
attr title  "packets received from lower layer, count"
scalar scenarioPRJP1.node[0].wlan.mac 	rcvdPkFromLL:sum(packetBytes) 	18490802
attr interpolationmode  none
attr source  packetReceivedFromLower
attr title  "packets received from lower layer, sum(packetBytes)"
scalar scenarioPRJP1.node[0].wlan.mac 	sentDownPk:count 	7536
attr interpolationmode  none
attr source  packetSentToLower
attr title  "packets sent to lower layer, count"
scalar scenarioPRJP1.node[0].wlan.mac 	sentDownPk:sum(packetBytes) 	4681162
attr interpolationmode  none
attr source  packetSentToLower
attr title  "packets sent to lower layer, sum(packetBytes)"
scalar scenarioPRJP1.node[0].wlan.mac 	rcvdPkFromHL:count 	3784
attr interpolationmode  none
attr source  packetReceivedFromUpper
attr title  "packets received from higher layer, count"
scalar scenarioPRJP1.node[0].wlan.mac 	rcvdPkFromHL:sum(packetBytes) 	3424696
attr interpolationmode  none
attr source  packetReceivedFromUpper
attr title  "packets received from higher layer, sum(packetBytes)"
scalar scenarioPRJP1.node[0].wlan.mac 	passedUpPk:count 	11390
attr interpolationmode  none
attr source  packetSentToUpper
attr title  "packets passed to higher layer, count"
scalar scenarioPRJP1.node[0].wlan.mac 	passedUpPk:sum(packetBytes) 	11288332
attr interpolationmode  none
attr source  packetSentToUpper
attr title  "packets passed to higher layer, sum(packetBytes)"
statistic scenarioPRJP1.node[0].wlan.radio 	radioChannel:histogram
field count 1
field mean 3
field stddev -nan
field sum 3
field sqrsum 9
field min 3
field max 3
attr interpolationmode  sample-hold
attr source  radioChannelChanged
attr title  "Radio channel, histogram"
bin	-INF	0
bin	2	0
bin	3	1
bin	4	0
scalar scenarioPRJP1.node[0].wlan.radio 	transmissionState:count 	30144
attr interpolationmode  sample-hold
attr source  transmissionStateChanged
attr title  "Radio transmission state, count"
scalar scenarioPRJP1.node[0].wlan.radio 	receptionState:count 	78134
attr interpolationmode  sample-hold
attr source  receptionStateChanged
attr title  "Radio reception state, count"
scalar scenarioPRJP1.node[0].wlan.radio 	radioMode:count 	15074
attr interpolationmode  sample-hold
attr source  radioModeChanged
attr title  "Radio mode, count"
statistic scenarioPRJP1.node[0].wlan.radio 	symbolErrorRate:histogram
field count 0
field mean -nan
field stddev -nan
field sum 0
field sqrsum 0
field min -nan
field max -nan
attr source  symbolErrorRate
attr title  "Symbol error rate, histogram"
bin	-INF	0
bin	-0.5	0
bin	-0.46666666666667	0
bin	-0.43333333333333	0
bin	-0.4	0
bin	-0.36666666666667	0
bin	-0.33333333333333	0
bin	-0.3	0
bin	-0.26666666666667	0
bin	-0.23333333333333	0
bin	-0.2	0
bin	-0.16666666666667	0
bin	-0.13333333333333	0
bin	-0.1	0
bin	-0.066666666666667	0
bin	-0.033333333333333	0
bin	0	0
bin	0.033333333333333	0
bin	0.066666666666667	0
bin	0.1	0
bin	0.13333333333333	0
bin	0.16666666666667	0
bin	0.2	0
bin	0.23333333333333	0
bin	0.26666666666667	0
bin	0.3	0
bin	0.33333333333333	0
bin	0.36666666666667	0
bin	0.4	0
bin	0.43333333333333	0
bin	0.46666666666667	0
bin	0.5	0
statistic scenarioPRJP1.node[0].wlan.radio 	bitErrorRate:histogram
field count 0
field mean -nan
field stddev -nan
field sum 0
field sqrsum 0
field min -nan
field max -nan
attr source  bitErrorRate
attr title  "Bit error rate, histogram"
bin	-INF	0
bin	-0.5	0
bin	-0.46666666666667	0
bin	-0.43333333333333	0
bin	-0.4	0
bin	-0.36666666666667	0
bin	-0.33333333333333	0
bin	-0.3	0
bin	-0.26666666666667	0
bin	-0.23333333333333	0
bin	-0.2	0
bin	-0.16666666666667	0
bin	-0.13333333333333	0
bin	-0.1	0
bin	-0.066666666666667	0
bin	-0.033333333333333	0
bin	0	0
bin	0.033333333333333	0
bin	0.066666666666667	0
bin	0.1	0
bin	0.13333333333333	0
bin	0.16666666666667	0
bin	0.2	0
bin	0.23333333333333	0
bin	0.26666666666667	0
bin	0.3	0
bin	0.33333333333333	0
bin	0.36666666666667	0
bin	0.4	0
bin	0.43333333333333	0
bin	0.46666666666667	0
bin	0.5	0
statistic scenarioPRJP1.node[0].wlan.radio 	packetErrorRate:histogram
field count 31382
field mean 0.088965873633267
field stddev 0.27746938818196
field sum 2791.9270463592
field sqrsum 2664.386240105
field min 0
field max 1
attr source  packetErrorRate
attr title  "Packet error rate, histogram"
bin	-INF	0
bin	-0.5	0
bin	-0.43333333333333	0
bin	-0.36666666666667	0
bin	-0.3	0
bin	-0.23333333333333	0
bin	-0.16666666666667	0
bin	-0.1	0
bin	-0.033333333333333	28034
bin	0.033333333333333	262
bin	0.1	100
bin	0.16666666666667	67
bin	0.23333333333333	50
bin	0.3	48
bin	0.36666666666667	39
bin	0.43333333333333	29
bin	0.5	31
bin	0.56666666666667	28
bin	0.63333333333333	37
bin	0.7	37
bin	0.76666666666667	46
bin	0.83333333333333	53
bin	0.9	53
bin	0.96666666666667	2468
bin	1.0333333333333	0
bin	1.1	0
bin	1.1666666666667	0
bin	1.2333333333333	0
bin	1.3	0
bin	1.3666666666667	0
bin	1.4333333333333	0
bin	1.5	0
statistic scenarioPRJP1.node[0].wlan.radio 	minSNIR:histogram
field count 31382
field mean 7695.9326283361
field stddev 53099.320782506
field sum 241513757.74244
field sqrsum 90338591430412
field min 0.00020449897635234
field max 753239.71923443
attr source  minSNIR
attr title  "Min SNIR, histogram"
bin	-INF	0
bin	-12089.58808309	0
bin	-10477.610694478	0
bin	-8865.6333058668	0
bin	-7253.6559172552	0
bin	-5641.6785286437	0
bin	-4029.7011400321	0
bin	-2417.7237514205	0
bin	-805.74636280896	24926
bin	806.23102580261	2328
bin	2418.2084144142	830
bin	4030.1858030257	412
bin	5642.1631916373	237
bin	7254.1405802489	204
bin	8866.1179688604	238
bin	10478.095357472	139
bin	12090.072746084	202
bin	13702.050134695	119
bin	15314.027523307	111
bin	16926.004911918	64
bin	18537.98230053	93
bin	20149.959689141	51
bin	21761.937077753	196
bin	23373.914466365	63
bin	24985.891854976	23
bin	26597.869243588	38
bin	28209.846632199	37
bin	29821.824020811	23
bin	31433.801409422	40
bin	33045.778798034	12
bin	34657.756186646	18
bin	36269.733575257	978
scalar scenarioPRJP1.node[0].lo0.lo 	droppedPkBitError:count 	0
attr interpolationmode  none
attr source  dropPkBitError
attr title  "packets dropped/bit error, count"
scalar scenarioPRJP1.node[0].lo0.lo 	droppedPkBitError:sum(packetBytes) 	0
attr interpolationmode  none
attr source  dropPkBitError
attr title  "packets dropped/bit error, sum(packetBytes)"
scalar scenarioPRJP1.node[0].lo0.lo 	rcvdPkFromHL:count 	4
attr interpolationmode  none
attr source  packetReceivedFromUpper
attr title  "packets received from higher layer, count"
scalar scenarioPRJP1.node[0].lo0.lo 	rcvdPkFromHL:sum(packetBytes) 	224
attr interpolationmode  none
attr source  packetReceivedFromUpper
attr title  "packets received from higher layer, sum(packetBytes)"
scalar scenarioPRJP1.node[0].lo0.lo 	passedUpPk:count 	4
attr interpolationmode  none
attr source  packetSentToUpper
attr title  "packets passed to higher layer, count"
scalar scenarioPRJP1.node[0].lo0.lo 	passedUpPk:sum(packetBytes) 	224
attr interpolationmode  none
attr source  packetSentToUpper
attr title  "packets passed to higher layer, sum(packetBytes)"
scalar scenarioPRJP1.node[21].app 	"Total sent" 	2606
scalar scenarioPRJP1.node[21].app 	"Total received" 	199
scalar scenarioPRJP1.node[21].app 	"Total deleted" 	0
scalar scenarioPRJP1.node[21].app 	dropPk:count 	0
attr interpolationmode  none
attr source  dropPk
attr title  "packets dropped, count"
scalar scenarioPRJP1.node[21].app 	dropPk:sum(packetBytes) 	0
attr interpolationmode  none
attr source  dropPk
attr title  "packets dropped, sum(packetBytes)"
scalar scenarioPRJP1.node[21].app 	outOfOrderPk:count 	0
attr interpolationmode  none
attr source  outOfOrderPk
attr title  "packets received out of order, count"
scalar scenarioPRJP1.node[21].app 	outOfOrderPk:sum(packetBytes) 	0
attr interpolationmode  none
attr source  outOfOrderPk
attr title  "packets received out of order, sum(packetBytes)"
scalar scenarioPRJP1.node[21].app 	rcvdPk:count 	199
attr interpolationmode  none
attr source  rcvdPk
attr title  "packets received, count"
scalar scenarioPRJP1.node[21].app 	rcvdPk:sum(packetBytes) 	101888
attr interpolationmode  none
attr source  rcvdPk
attr title  "packets received, sum(packetBytes)"
statistic scenarioPRJP1.node[21].app 	endToEndDelay:histogram
field count 199
field mean 0.068648807750166
field stddev 0.2471730058833
field sum 13.661112742283
field sqrsum 13.034529080101
field min 0.000937368564
field max 2.002049261272
attr interpolationmode  none
attr source  messageAge(rcvdPk)
attr title  "delay, histogram"
attr unit  s
bin	-INF	0
bin	-0.5140861643845	0
bin	-0.44541533731017	0
bin	-0.37674451023583	0
bin	-0.3080736831615	0
bin	-0.23940285608717	0
bin	-0.17073202901283	0
bin	-0.1020612019385	0
bin	-0.033390374864167	174
bin	0.035280452210167	12
bin	0.1039512792845	0
bin	0.17262210635883	0
bin	0.24129293343317	1
bin	0.3099637605075	0
bin	0.37863458758183	0
bin	0.44730541465617	0
bin	0.5159762417305	2
bin	0.58464706880483	0
bin	0.65331789587917	0
bin	0.7219887229535	1
bin	0.79065955002783	1
bin	0.85933037710217	1
bin	0.9280012041765	0
bin	0.99667203125083	6
bin	1.0653428583252	0
bin	1.1340136853995	0
bin	1.2026845124738	0
bin	1.2713553395482	0
bin	1.3400261666225	0
bin	1.4086969936968	0
bin	1.4773678207712	0
bin	1.5460386478455	1
scalar scenarioPRJP1.node[21].app 	sentPk:count 	2606
attr interpolationmode  none
attr source  sentPk
attr title  "packets sent, count"
scalar scenarioPRJP1.node[21].app 	sentPk:sum(packetBytes) 	1334272
attr interpolationmode  none
attr source  sentPk
attr title  "packets sent, sum(packetBytes)"
scalar scenarioPRJP1.node[21].udp 	droppedPkBadChecksum:count 	0
attr interpolationmode  none
attr title  "packets dropped (checksum error), count"
scalar scenarioPRJP1.node[21].udp 	droppedPkWrongPort:count 	0
attr interpolationmode  none
attr title  "packets dropped (wrong port), count"
scalar scenarioPRJP1.node[21].udp 	passedUpPk:count 	199
attr interpolationmode  none
attr title  "packets passed up, count"
scalar scenarioPRJP1.node[21].udp 	rcvdPk:count 	199
attr interpolationmode  none
attr source  rcvdPk
attr title  "packets received, count"
scalar scenarioPRJP1.node[21].udp 	rcvdPk:sum(packetBytes) 	103480
attr interpolationmode  none
attr source  rcvdPk
attr title  "packets received, sum(packetBytes)"
scalar scenarioPRJP1.node[21].udp 	sentPk:count 	2606
attr interpolationmode  none
attr source  sentPk
attr title  "packets sent, count"
scalar scenarioPRJP1.node[21].udp 	sentPk:sum(packetBytes) 	1355120
attr interpolationmode  none
attr source  sentPk
attr title  "packets sent, sum(packetBytes)"
scalar scenarioPRJP1.node[21].networkLayer.arp 	failedARPResolution:count 	7
attr title  "ARP failed resolutions, count"
scalar scenarioPRJP1.node[21].networkLayer.arp 	completedARPResolution:count 	411
attr title  "ARP completed resolutions, count"
scalar scenarioPRJP1.node[21].networkLayer.arp 	initiatedARPResolution:count 	60
attr title  "ARP initiated resolutions, count"
scalar scenarioPRJP1.node[21].networkLayer.arp 	sentReply:count 	50
attr title  "ARP replies sent, count"
scalar scenarioPRJP1.node[21].networkLayer.arp 	sentReq:count 	89
attr title  "ARP request sent, count"
scalar scenarioPRJP1.node[21].mobility 	startTime 	2.5
scalar scenarioPRJP1.node[21].mobility 	totalTime 	947.5
scalar scenarioPRJP1.node[21].mobility 	stopTime 	950
scalar scenarioPRJP1.node[21].mobility 	minSpeed 	2.4755298771724e-13
scalar scenarioPRJP1.node[21].mobility 	maxSpeed 	17.436180349351
scalar scenarioPRJP1.node[21].mobility 	totalDistance 	8414.9919405318
scalar scenarioPRJP1.node[21].mobility 	totalCO2Emission 	2429.8377528186
scalar scenarioPRJP1.node[21].wlan.mgmt 	dataQueueLen:max 	0
attr interpolationmode  sample-hold
attr title  "data queue length, max"
scalar scenarioPRJP1.node[21].wlan.mgmt 	dataQueueLen:timeavg 	0
attr interpolationmode  sample-hold
attr title  "data queue length, timeavg"
scalar scenarioPRJP1.node[21].wlan.mgmt 	dropPkByQueue:count 	0
attr interpolationmode  none
attr source  dropPkByQueue
attr title  "packets dropped by queue, count"
scalar scenarioPRJP1.node[21].wlan.mgmt 	dropPkByQueue:sum(packetBytes) 	0
attr interpolationmode  none
attr source  dropPkByQueue
attr title  "packets dropped by queue, sum(packetBytes)"
scalar scenarioPRJP1.node[21].wlan.mac 	"number of received packets" 	1466
scalar scenarioPRJP1.node[21].wlan.mac 	"number of collisions" 	4569
scalar scenarioPRJP1.node[21].wlan.mac 	"number of internal collisions" 	0
scalar scenarioPRJP1.node[21].wlan.mac 	"number of retry for AC 0" 	1989
scalar scenarioPRJP1.node[21].wlan.mac 	"number of retry for AC 1" 	6
scalar scenarioPRJP1.node[21].wlan.mac 	"number of retry for AC 2" 	0
scalar scenarioPRJP1.node[21].wlan.mac 	"number of retry for AC 3" 	0
scalar scenarioPRJP1.node[21].wlan.mac 	"sent and received bits" 	24900352
scalar scenarioPRJP1.node[21].wlan.mac 	"sent packet within AC 0" 	814
scalar scenarioPRJP1.node[21].wlan.mac 	"sent packet within AC 1" 	32
scalar scenarioPRJP1.node[21].wlan.mac 	"sent packet within AC 2" 	0
scalar scenarioPRJP1.node[21].wlan.mac 	"sent packet within AC 3" 	0
scalar scenarioPRJP1.node[21].wlan.mac 	"sent in TXOP " 	0
scalar scenarioPRJP1.node[21].wlan.mac 	"sentWithoutRetry AC 0" 	770
scalar scenarioPRJP1.node[21].wlan.mac 	"sentWithoutRetry AC 1" 	32
scalar scenarioPRJP1.node[21].wlan.mac 	"sentWithoutRetry AC 2" 	0
scalar scenarioPRJP1.node[21].wlan.mac 	"sentWithoutRetry AC 3" 	0
scalar scenarioPRJP1.node[21].wlan.mac 	"numGivenUp AC 0" 	314
scalar scenarioPRJP1.node[21].wlan.mac 	"numGivenUp AC 1" 	1
scalar scenarioPRJP1.node[21].wlan.mac 	"numGivenUp AC 2" 	0
scalar scenarioPRJP1.node[21].wlan.mac 	"numGivenUp AC 3" 	0
scalar scenarioPRJP1.node[21].wlan.mac 	"numDropped AC 0" 	0
scalar scenarioPRJP1.node[21].wlan.mac 	"numDropped AC 1" 	0
scalar scenarioPRJP1.node[21].wlan.mac 	"numDropped AC 2" 	0
scalar scenarioPRJP1.node[21].wlan.mac 	"numDropped AC 3" 	0
scalar scenarioPRJP1.node[21].wlan.mac 	rcvdPkFromLL:count 	41035
attr interpolationmode  none
attr source  packetReceivedFromLower
attr title  "packets received from lower layer, count"
scalar scenarioPRJP1.node[21].wlan.mac 	rcvdPkFromLL:sum(packetBytes) 	23504372
attr interpolationmode  none
attr source  packetReceivedFromLower
attr title  "packets received from lower layer, sum(packetBytes)"
scalar scenarioPRJP1.node[21].wlan.mac 	sentDownPk:count 	7213
attr interpolationmode  none
attr source  packetSentToLower
attr title  "packets sent to lower layer, count"
scalar scenarioPRJP1.node[21].wlan.mac 	sentDownPk:sum(packetBytes) 	4346064
attr interpolationmode  none
attr source  packetSentToLower
attr title  "packets sent to lower layer, sum(packetBytes)"
scalar scenarioPRJP1.node[21].wlan.mac 	rcvdPkFromHL:count 	3752
attr interpolationmode  none
attr source  packetReceivedFromUpper
attr title  "packets received from higher layer, count"
scalar scenarioPRJP1.node[21].wlan.mac 	rcvdPkFromHL:sum(packetBytes) 	3277628
attr interpolationmode  none
attr source  packetReceivedFromUpper
attr title  "packets received from higher layer, sum(packetBytes)"
scalar scenarioPRJP1.node[21].wlan.mac 	passedUpPk:count 	13554
attr interpolationmode  none
attr source  packetSentToUpper
attr title  "packets passed to higher layer, count"
scalar scenarioPRJP1.node[21].wlan.mac 	passedUpPk:sum(packetBytes) 	13356860
attr interpolationmode  none
attr source  packetSentToUpper
attr title  "packets passed to higher layer, sum(packetBytes)"
statistic scenarioPRJP1.node[21].wlan.radio 	radioChannel:histogram
field count 1
field mean 3
field stddev -nan
field sum 3
field sqrsum 9
field min 3
field max 3
attr interpolationmode  sample-hold
attr source  radioChannelChanged
attr title  "Radio channel, histogram"
bin	-INF	0
bin	2	0
bin	3	1
bin	4	0
scalar scenarioPRJP1.node[21].wlan.radio 	transmissionState:count 	28852
attr interpolationmode  sample-hold
attr source  transmissionStateChanged
attr title  "Radio transmission state, count"
scalar scenarioPRJP1.node[21].wlan.radio 	receptionState:count 	96911
attr interpolationmode  sample-hold
attr source  receptionStateChanged
attr title  "Radio reception state, count"
scalar scenarioPRJP1.node[21].wlan.radio 	radioMode:count 	14428
attr interpolationmode  sample-hold
attr source  radioModeChanged
attr title  "Radio mode, count"
statistic scenarioPRJP1.node[21].wlan.radio 	symbolErrorRate:histogram
field count 0
field mean -nan
field stddev -nan
field sum 0
field sqrsum 0
field min -nan
field max -nan
attr source  symbolErrorRate
attr title  "Symbol error rate, histogram"
bin	-INF	0
bin	-0.5	0
bin	-0.46666666666667	0
bin	-0.43333333333333	0
bin	-0.4	0
bin	-0.36666666666667	0
bin	-0.33333333333333	0
bin	-0.3	0
bin	-0.26666666666667	0
bin	-0.23333333333333	0
bin	-0.2	0
bin	-0.16666666666667	0
bin	-0.13333333333333	0
bin	-0.1	0
bin	-0.066666666666667	0
bin	-0.033333333333333	0
bin	0	0
bin	0.033333333333333	0
bin	0.066666666666667	0
bin	0.1	0
bin	0.13333333333333	0
bin	0.16666666666667	0
bin	0.2	0
bin	0.23333333333333	0
bin	0.26666666666667	0
bin	0.3	0
bin	0.33333333333333	0
bin	0.36666666666667	0
bin	0.4	0
bin	0.43333333333333	0
bin	0.46666666666667	0
bin	0.5	0
statistic scenarioPRJP1.node[21].wlan.radio 	bitErrorRate:histogram
field count 0
field mean -nan
field stddev -nan
field sum 0
field sqrsum 0
field min -nan
field max -nan
attr source  bitErrorRate
attr title  "Bit error rate, histogram"
bin	-INF	0
bin	-0.5	0
bin	-0.46666666666667	0
bin	-0.43333333333333	0
bin	-0.4	0
bin	-0.36666666666667	0
bin	-0.33333333333333	0
bin	-0.3	0
bin	-0.26666666666667	0
bin	-0.23333333333333	0
bin	-0.2	0
bin	-0.16666666666667	0
bin	-0.13333333333333	0
bin	-0.1	0
bin	-0.066666666666667	0
bin	-0.033333333333333	0
bin	0	0
bin	0.033333333333333	0
bin	0.066666666666667	0
bin	0.1	0
bin	0.13333333333333	0
bin	0.16666666666667	0
bin	0.2	0
bin	0.23333333333333	0
bin	0.26666666666667	0
bin	0.3	0
bin	0.33333333333333	0
bin	0.36666666666667	0
bin	0.4	0
bin	0.43333333333333	0
bin	0.46666666666667	0
bin	0.5	0
statistic scenarioPRJP1.node[21].wlan.radio 	packetErrorRate:histogram
field count 41035
field mean 0.10438044324535
field stddev 0.29796657344593
field sum 4283.251488573
field sqrsum 4090.2535821264
field min 0
field max 1
attr source  packetErrorRate
attr title  "Packet error rate, histogram"
bin	-INF	0
bin	-0.5	0
bin	-0.46666666666667	0
bin	-0.43333333333333	0
bin	-0.4	0
bin	-0.36666666666667	0
bin	-0.33333333333333	0
bin	-0.3	0
bin	-0.26666666666667	0
bin	-0.23333333333333	0
bin	-0.2	0
bin	-0.16666666666667	0
bin	-0.13333333333333	0
bin	-0.1	0
bin	-0.066666666666667	0
bin	-0.033333333333333	0
bin	0	35944
bin	0.033333333333333	202
bin	0.066666666666667	119
bin	0.1	93
bin	0.13333333333333	79
bin	0.16666666666667	68
bin	0.2	44
bin	0.23333333333333	37
bin	0.26666666666667	47
bin	0.3	39
bin	0.33333333333333	34
bin	0.36666666666667	43
bin	0.4	20
bin	0.43333333333333	21
bin	0.46666666666667	28
bin	0.5	4217
statistic scenarioPRJP1.node[21].wlan.radio 	minSNIR:histogram
field count 41035
field mean 8128.7604575237
field stddev 49419.833054619
field sum 333563685.37449
field sqrsum 1.0292961403731e+14
field min 0.00041820380353456
field max 753239.71923443
attr source  minSNIR
attr title  "Min SNIR, histogram"
bin	-INF	0
bin	-14494.267281851	0
bin	-12559.31653729	0
bin	-10624.365792729	0
bin	-8689.4150481678	0
bin	-6754.4643036067	0
bin	-4819.5135590455	0
bin	-2884.5628144843	0
bin	-949.6120699231	32301
bin	985.33867463808	2995
bin	2920.2894191993	1040
bin	4855.2401637604	550
bin	6790.1909083216	421
bin	8725.1416528828	237
bin	10660.092397444	304
bin	12595.043142005	284
bin	14529.993886566	213
bin	16464.944631128	163
bin	18399.895375689	219
bin	20334.84612025	121
bin	22269.796864811	145
bin	24204.747609372	95
bin	26139.698353933	54
bin	28074.649098495	54
bin	30009.599843056	64
bin	31944.550587617	51
bin	33879.501332178	33
bin	35814.452076739	26
bin	37749.402821301	42
bin	39684.353565862	38
bin	41619.304310423	82
bin	43554.255054984	1503
scalar scenarioPRJP1.node[21].lo0.lo 	droppedPkBitError:count 	0
attr interpolationmode  none
attr source  dropPkBitError
attr title  "packets dropped/bit error, count"
scalar scenarioPRJP1.node[21].lo0.lo 	droppedPkBitError:sum(packetBytes) 	0
attr interpolationmode  none
attr source  dropPkBitError
attr title  "packets dropped/bit error, sum(packetBytes)"
scalar scenarioPRJP1.node[21].lo0.lo 	rcvdPkFromHL:count 	8
attr interpolationmode  none
attr source  packetReceivedFromUpper
attr title  "packets received from higher layer, count"
scalar scenarioPRJP1.node[21].lo0.lo 	rcvdPkFromHL:sum(packetBytes) 	448
attr interpolationmode  none
attr source  packetReceivedFromUpper
attr title  "packets received from higher layer, sum(packetBytes)"
scalar scenarioPRJP1.node[21].lo0.lo 	passedUpPk:count 	8
attr interpolationmode  none
attr source  packetSentToUpper
attr title  "packets passed to higher layer, count"
scalar scenarioPRJP1.node[21].lo0.lo 	passedUpPk:sum(packetBytes) 	448
attr interpolationmode  none
attr source  packetSentToUpper
attr title  "packets passed to higher layer, sum(packetBytes)"
scalar scenarioPRJP1.node[43].app 	"Total sent" 	2601
scalar scenarioPRJP1.node[43].app 	"Total received" 	141
scalar scenarioPRJP1.node[43].app 	"Total deleted" 	0
scalar scenarioPRJP1.node[43].app 	dropPk:count 	0
attr interpolationmode  none
attr source  dropPk
attr title  "packets dropped, count"
scalar scenarioPRJP1.node[43].app 	dropPk:sum(packetBytes) 	0
attr interpolationmode  none
attr source  dropPk
attr title  "packets dropped, sum(packetBytes)"
scalar scenarioPRJP1.node[43].app 	outOfOrderPk:count 	0
attr interpolationmode  none
attr source  outOfOrderPk
attr title  "packets received out of order, count"
scalar scenarioPRJP1.node[43].app 	outOfOrderPk:sum(packetBytes) 	0
attr interpolationmode  none
attr source  outOfOrderPk
attr title  "packets received out of order, sum(packetBytes)"
scalar scenarioPRJP1.node[43].app 	rcvdPk:count 	141
attr interpolationmode  none
attr source  rcvdPk
attr title  "packets received, count"
scalar scenarioPRJP1.node[43].app 	rcvdPk:sum(packetBytes) 	72192
attr interpolationmode  none
attr source  rcvdPk
attr title  "packets received, sum(packetBytes)"
statistic scenarioPRJP1.node[43].app 	endToEndDelay:histogram
field count 141
field mean 0.062576803259113
field stddev 0.24807813443926
field sum 8.823329259535
field sqrsum 9.168122249325
field min 0.000945011007
field max 2.035351342339
attr interpolationmode  none
attr source  messageAge(rcvdPk)
attr title  "delay, histogram"
attr unit  s
bin	-INF	0
bin	-1.016258154659	0
bin	-0.88063106590353	0
bin	-0.74500397714807	0
bin	-0.6093768883926	0
bin	-0.47374979963713	0
bin	-0.33812271088167	0
bin	-0.2024956221262	0
bin	-0.066868533370734	132
bin	0.068758555384733	0
bin	0.2043856441402	2
bin	0.34001273289567	0
bin	0.47563982165113	2
bin	0.6112669104066	0
bin	0.74689399916207	0
bin	0.88252108791753	2
bin	1.018148176673	2
bin	1.1537752654285	0
bin	1.2894023541839	0
bin	1.4250294429394	0
bin	1.5606565316949	0
bin	1.6962836204503	0
bin	1.8319107092058	0
bin	1.9675377979613	1
bin	2.1031648867167	0
bin	2.2387919754722	0
bin	2.3744190642277	0
bin	2.5100461529831	0
bin	2.6456732417386	0
bin	2.7813003304941	0
bin	2.9169274192495	0
bin	3.052554508005	0
scalar scenarioPRJP1.node[43].app 	sentPk:count 	2601
attr interpolationmode  none
attr source  sentPk
attr title  "packets sent, count"
scalar scenarioPRJP1.node[43].app 	sentPk:sum(packetBytes) 	1331712
attr interpolationmode  none
attr source  sentPk
attr title  "packets sent, sum(packetBytes)"
scalar scenarioPRJP1.node[43].udp 	droppedPkBadChecksum:count 	0
attr interpolationmode  none
attr title  "packets dropped (checksum error), count"
scalar scenarioPRJP1.node[43].udp 	droppedPkWrongPort:count 	0
attr interpolationmode  none
attr title  "packets dropped (wrong port), count"
scalar scenarioPRJP1.node[43].udp 	passedUpPk:count 	141
attr interpolationmode  none
attr title  "packets passed up, count"
scalar scenarioPRJP1.node[43].udp 	rcvdPk:count 	141
attr interpolationmode  none
attr source  rcvdPk
attr title  "packets received, count"
scalar scenarioPRJP1.node[43].udp 	rcvdPk:sum(packetBytes) 	73320
attr interpolationmode  none
attr source  rcvdPk
attr title  "packets received, sum(packetBytes)"
scalar scenarioPRJP1.node[43].udp 	sentPk:count 	2601
attr interpolationmode  none
attr source  sentPk
attr title  "packets sent, count"
scalar scenarioPRJP1.node[43].udp 	sentPk:sum(packetBytes) 	1352520
attr interpolationmode  none
attr source  sentPk
attr title  "packets sent, sum(packetBytes)"
scalar scenarioPRJP1.node[43].networkLayer.arp 	failedARPResolution:count 	3
attr title  "ARP failed resolutions, count"
scalar scenarioPRJP1.node[43].networkLayer.arp 	completedARPResolution:count 	263
attr title  "ARP completed resolutions, count"
scalar scenarioPRJP1.node[43].networkLayer.arp 	initiatedARPResolution:count 	48
attr title  "ARP initiated resolutions, count"
scalar scenarioPRJP1.node[43].networkLayer.arp 	sentReply:count 	39
attr title  "ARP replies sent, count"
scalar scenarioPRJP1.node[43].networkLayer.arp 	sentReq:count 	61
attr title  "ARP request sent, count"
scalar scenarioPRJP1.node[43].mobility 	startTime 	4.9
scalar scenarioPRJP1.node[43].mobility 	totalTime 	945.1
scalar scenarioPRJP1.node[43].mobility 	stopTime 	950
scalar scenarioPRJP1.node[43].mobility 	minSpeed 	2.4756891710526e-13
scalar scenarioPRJP1.node[43].mobility 	maxSpeed 	13.400860948825
scalar scenarioPRJP1.node[43].mobility 	totalDistance 	7320.6899415273
scalar scenarioPRJP1.node[43].mobility 	totalCO2Emission 	1943.3526590711
scalar scenarioPRJP1.node[43].wlan.mgmt 	dataQueueLen:max 	0
attr interpolationmode  sample-hold
attr title  "data queue length, max"
scalar scenarioPRJP1.node[43].wlan.mgmt 	dataQueueLen:timeavg 	0
attr interpolationmode  sample-hold
attr title  "data queue length, timeavg"
scalar scenarioPRJP1.node[43].wlan.mgmt 	dropPkByQueue:count 	0
attr interpolationmode  none
attr source  dropPkByQueue
attr title  "packets dropped by queue, count"
scalar scenarioPRJP1.node[43].wlan.mgmt 	dropPkByQueue:sum(packetBytes) 	0
attr interpolationmode  none
attr source  dropPkByQueue
attr title  "packets dropped by queue, sum(packetBytes)"
scalar scenarioPRJP1.node[43].wlan.mac 	"number of received packets" 	1063
scalar scenarioPRJP1.node[43].wlan.mac 	"number of collisions" 	2480
scalar scenarioPRJP1.node[43].wlan.mac 	"number of internal collisions" 	0
scalar scenarioPRJP1.node[43].wlan.mac 	"number of retry for AC 0" 	1676
scalar scenarioPRJP1.node[43].wlan.mac 	"number of retry for AC 1" 	39
scalar scenarioPRJP1.node[43].wlan.mac 	"number of retry for AC 2" 	0
scalar scenarioPRJP1.node[43].wlan.mac 	"number of retry for AC 3" 	0
scalar scenarioPRJP1.node[43].wlan.mac 	"sent and received bits" 	21238368
scalar scenarioPRJP1.node[43].wlan.mac 	"sent packet within AC 0" 	462
scalar scenarioPRJP1.node[43].wlan.mac 	"sent packet within AC 1" 	16
scalar scenarioPRJP1.node[43].wlan.mac 	"sent packet within AC 2" 	0
scalar scenarioPRJP1.node[43].wlan.mac 	"sent packet within AC 3" 	0
scalar scenarioPRJP1.node[43].wlan.mac 	"sent in TXOP " 	0
scalar scenarioPRJP1.node[43].wlan.mac 	"sentWithoutRetry AC 0" 	432
scalar scenarioPRJP1.node[43].wlan.mac 	"sentWithoutRetry AC 1" 	15
scalar scenarioPRJP1.node[43].wlan.mac 	"sentWithoutRetry AC 2" 	0
scalar scenarioPRJP1.node[43].wlan.mac 	"sentWithoutRetry AC 3" 	0
scalar scenarioPRJP1.node[43].wlan.mac 	"numGivenUp AC 0" 	269
scalar scenarioPRJP1.node[43].wlan.mac 	"numGivenUp AC 1" 	6
scalar scenarioPRJP1.node[43].wlan.mac 	"numGivenUp AC 2" 	0
scalar scenarioPRJP1.node[43].wlan.mac 	"numGivenUp AC 3" 	0
scalar scenarioPRJP1.node[43].wlan.mac 	"numDropped AC 0" 	0
scalar scenarioPRJP1.node[43].wlan.mac 	"numDropped AC 1" 	0
scalar scenarioPRJP1.node[43].wlan.mac 	"numDropped AC 2" 	0
scalar scenarioPRJP1.node[43].wlan.mac 	"numDropped AC 3" 	0
scalar scenarioPRJP1.node[43].wlan.mac 	rcvdPkFromLL:count 	24200
attr interpolationmode  none
attr source  packetReceivedFromLower
attr title  "packets received from lower layer, count"
scalar scenarioPRJP1.node[43].wlan.mac 	rcvdPkFromLL:sum(packetBytes) 	14474648
attr interpolationmode  none
attr source  packetReceivedFromLower
attr title  "packets received from lower layer, sum(packetBytes)"
scalar scenarioPRJP1.node[43].wlan.mac 	sentDownPk:count 	5854
attr interpolationmode  none
attr source  packetSentToLower
attr title  "packets sent to lower layer, count"
scalar scenarioPRJP1.node[43].wlan.mac 	sentDownPk:sum(packetBytes) 	3696346
attr interpolationmode  none
attr source  packetSentToLower
attr title  "packets sent to lower layer, sum(packetBytes)"
scalar scenarioPRJP1.node[43].wlan.mac 	rcvdPkFromHL:count 	3076
attr interpolationmode  none
attr source  packetReceivedFromUpper
attr title  "packets received from higher layer, count"
scalar scenarioPRJP1.node[43].wlan.mac 	rcvdPkFromHL:sum(packetBytes) 	2796468
attr interpolationmode  none
attr source  packetReceivedFromUpper
attr title  "packets received from higher layer, sum(packetBytes)"
scalar scenarioPRJP1.node[43].wlan.mac 	passedUpPk:count 	9112
attr interpolationmode  none
attr source  packetSentToUpper
attr title  "packets passed to higher layer, count"
scalar scenarioPRJP1.node[43].wlan.mac 	passedUpPk:sum(packetBytes) 	9044020
attr interpolationmode  none
attr source  packetSentToUpper
attr title  "packets passed to higher layer, sum(packetBytes)"
statistic scenarioPRJP1.node[43].wlan.radio 	radioChannel:histogram
field count 1
field mean 3
field stddev -nan
field sum 3
field sqrsum 9
field min 3
field max 3
attr interpolationmode  sample-hold
attr source  radioChannelChanged
attr title  "Radio channel, histogram"
bin	-INF	0
bin	2	0
bin	3	1
bin	4	0
scalar scenarioPRJP1.node[43].wlan.radio 	transmissionState:count 	23416
attr interpolationmode  sample-hold
attr source  transmissionStateChanged
attr title  "Radio transmission state, count"
scalar scenarioPRJP1.node[43].wlan.radio 	receptionState:count 	60339
attr interpolationmode  sample-hold
attr source  receptionStateChanged
attr title  "Radio reception state, count"
scalar scenarioPRJP1.node[43].wlan.radio 	radioMode:count 	11710
attr interpolationmode  sample-hold
attr source  radioModeChanged
attr title  "Radio mode, count"
statistic scenarioPRJP1.node[43].wlan.radio 	symbolErrorRate:histogram
field count 0
field mean -nan
field stddev -nan
field sum 0
field sqrsum 0
field min -nan
field max -nan
attr source  symbolErrorRate
attr title  "Symbol error rate, histogram"
bin	-INF	0
bin	-0.5	0
bin	-0.46666666666667	0
bin	-0.43333333333333	0
bin	-0.4	0
bin	-0.36666666666667	0
bin	-0.33333333333333	0
bin	-0.3	0
bin	-0.26666666666667	0
bin	-0.23333333333333	0
bin	-0.2	0
bin	-0.16666666666667	0
bin	-0.13333333333333	0
bin	-0.1	0
bin	-0.066666666666667	0
bin	-0.033333333333333	0
bin	0	0
bin	0.033333333333333	0
bin	0.066666666666667	0
bin	0.1	0
bin	0.13333333333333	0
bin	0.16666666666667	0
bin	0.2	0
bin	0.23333333333333	0
bin	0.26666666666667	0
bin	0.3	0
bin	0.33333333333333	0
bin	0.36666666666667	0
bin	0.4	0
bin	0.43333333333333	0
bin	0.46666666666667	0
bin	0.5	0
statistic scenarioPRJP1.node[43].wlan.radio 	bitErrorRate:histogram
field count 0
field mean -nan
field stddev -nan
field sum 0
field sqrsum 0
field min -nan
field max -nan
attr source  bitErrorRate
attr title  "Bit error rate, histogram"
bin	-INF	0
bin	-0.5	0
bin	-0.46666666666667	0
bin	-0.43333333333333	0
bin	-0.4	0
bin	-0.36666666666667	0
bin	-0.33333333333333	0
bin	-0.3	0
bin	-0.26666666666667	0
bin	-0.23333333333333	0
bin	-0.2	0
bin	-0.16666666666667	0
bin	-0.13333333333333	0
bin	-0.1	0
bin	-0.066666666666667	0
bin	-0.033333333333333	0
bin	0	0
bin	0.033333333333333	0
bin	0.066666666666667	0
bin	0.1	0
bin	0.13333333333333	0
bin	0.16666666666667	0
bin	0.2	0
bin	0.23333333333333	0
bin	0.26666666666667	0
bin	0.3	0
bin	0.33333333333333	0
bin	0.36666666666667	0
bin	0.4	0
bin	0.43333333333333	0
bin	0.46666666666667	0
bin	0.5	0
statistic scenarioPRJP1.node[43].wlan.radio 	packetErrorRate:histogram
field count 24200
field mean 0.095909400097969
field stddev 0.28624151532464
field sum 2321.0074823709
field sqrsum 2205.3322643594
field min 0
field max 1
attr source  packetErrorRate
attr title  "Packet error rate, histogram"
bin	-INF	0
bin	-0.5	0
bin	-0.46666666666667	0
bin	-0.43333333333333	0
bin	-0.4	0
bin	-0.36666666666667	0
bin	-0.33333333333333	0
bin	-0.3	0
bin	-0.26666666666667	0
bin	-0.23333333333333	0
bin	-0.2	0
bin	-0.16666666666667	0
bin	-0.13333333333333	0
bin	-0.1	0
bin	-0.066666666666667	0
bin	-0.033333333333333	0
bin	0	21393
bin	0.033333333333333	108
bin	0.066666666666667	92
bin	0.1	62
bin	0.13333333333333	41
bin	0.16666666666667	27
bin	0.2	30
bin	0.23333333333333	26
bin	0.26666666666667	28
bin	0.3	22
bin	0.33333333333333	26
bin	0.36666666666667	21
bin	0.4	11
bin	0.43333333333333	14
bin	0.46666666666667	21
bin	0.5	2278
statistic scenarioPRJP1.node[43].wlan.radio 	minSNIR:histogram
field count 24200
field mean 9255.062243391
field stddev 57760.901553673
field sum 223972506.29006
field sqrsum 82808529473469
field min 0.0014360326153546
field max 753239.71923443
attr source  minSNIR
attr title  "Min SNIR, histogram"
bin	-INF	0
bin	-17892.34196981	0
bin	-15504.949105936	0
bin	-13117.556242062	0
bin	-10730.163378188	0
bin	-8342.7705143136	0
bin	-5955.3776504396	0
bin	-3567.9847865656	0
bin	-1180.5919226916	19819
bin	1206.8009411825	1452
bin	3594.1938050565	461
bin	5981.5866689305	297
bin	8368.9795328045	198
bin	10756.372396679	224
bin	13143.765260553	134
bin	15531.158124427	102
bin	17918.550988301	107
bin	20305.943852175	89
bin	22693.336716049	94
bin	25080.729579923	73
bin	27468.122443797	31
bin	29855.515307671	101
bin	32242.908171545	85
bin	34630.301035419	27
bin	37017.693899293	65
bin	39405.086763167	19
bin	41792.479627041	17
bin	44179.872490915	11
bin	46567.265354789	10
bin	48954.658218663	11
bin	51342.051082537	13
bin	53729.443946411	760
scalar scenarioPRJP1.node[43].lo0.lo 	droppedPkBitError:count 	0
attr interpolationmode  none
attr source  dropPkBitError
attr title  "packets dropped/bit error, count"
scalar scenarioPRJP1.node[43].lo0.lo 	droppedPkBitError:sum(packetBytes) 	0
attr interpolationmode  none
attr source  dropPkBitError
attr title  "packets dropped/bit error, sum(packetBytes)"
scalar scenarioPRJP1.node[43].lo0.lo 	rcvdPkFromHL:count 	1
attr interpolationmode  none
attr source  packetReceivedFromUpper
attr title  "packets received from higher layer, count"
scalar scenarioPRJP1.node[43].lo0.lo 	rcvdPkFromHL:sum(packetBytes) 	56
attr interpolationmode  none
attr source  packetReceivedFromUpper
attr title  "packets received from higher layer, sum(packetBytes)"
scalar scenarioPRJP1.node[43].lo0.lo 	passedUpPk:count 	1
attr interpolationmode  none
attr source  packetSentToUpper
attr title  "packets passed to higher layer, count"
scalar scenarioPRJP1.node[43].lo0.lo 	passedUpPk:sum(packetBytes) 	56
attr interpolationmode  none
attr source  packetSentToUpper
attr title  "packets passed to higher layer, sum(packetBytes)"
scalar scenarioPRJP1.node[62].app 	"Total sent" 	2623
scalar scenarioPRJP1.node[62].app 	"Total received" 	160
scalar scenarioPRJP1.node[62].app 	"Total deleted" 	0
scalar scenarioPRJP1.node[62].app 	dropPk:count 	0
attr interpolationmode  none
attr source  dropPk
attr title  "packets dropped, count"
scalar scenarioPRJP1.node[62].app 	dropPk:sum(packetBytes) 	0
attr interpolationmode  none
attr source  dropPk
attr title  "packets dropped, sum(packetBytes)"
scalar scenarioPRJP1.node[62].app 	outOfOrderPk:count 	0
attr interpolationmode  none
attr source  outOfOrderPk
attr title  "packets received out of order, count"
scalar scenarioPRJP1.node[62].app 	outOfOrderPk:sum(packetBytes) 	0
attr interpolationmode  none
attr source  outOfOrderPk
attr title  "packets received out of order, sum(packetBytes)"
scalar scenarioPRJP1.node[62].app 	rcvdPk:count 	160
attr interpolationmode  none
attr source  rcvdPk
attr title  "packets received, count"
scalar scenarioPRJP1.node[62].app 	rcvdPk:sum(packetBytes) 	81920
attr interpolationmode  none
attr source  rcvdPk
attr title  "packets received, sum(packetBytes)"
statistic scenarioPRJP1.node[62].app 	endToEndDelay:histogram
field count 160
field mean 0.053482818718919
field stddev 0.19856862906117
field sum 8.557250995027
field sqrsum 6.7269564748094
field min 0.000945147376
field max 1.051754326817
attr interpolationmode  none
attr source  messageAge(rcvdPk)
attr title  "delay, histogram"
attr unit  s
bin	-INF	0
bin	-0.5244594423445	0
bin	-0.45440549704843	0
bin	-0.38435155175237	0
bin	-0.3142976064563	0
bin	-0.24424366116023	0
bin	-0.17418971586417	0
bin	-0.1041357705681	0
bin	-0.034081825272033	142
bin	0.035972120024033	10
bin	0.1060260653201	0
bin	0.17608001061617	0
bin	0.24613395591223	0
bin	0.3161879012083	1
bin	0.38624184650437	0
bin	0.45629579180043	0
bin	0.5263497370965	1
bin	0.59640368239257	0
bin	0.66645762768863	0
bin	0.7365115729847	0
bin	0.80656551828077	0
bin	0.87661946357683	0
bin	0.9466734088729	3
bin	1.016727354169	3
bin	1.086781299465	0
bin	1.1568352447611	0
bin	1.2268891900572	0
bin	1.2969431353532	0
bin	1.3669970806493	0
bin	1.4370510259454	0
bin	1.5071049712414	0
bin	1.5771589165375	0
scalar scenarioPRJP1.node[62].app 	sentPk:count 	2623
attr interpolationmode  none
attr source  sentPk
attr title  "packets sent, count"
scalar scenarioPRJP1.node[62].app 	sentPk:sum(packetBytes) 	1342976
attr interpolationmode  none
attr source  sentPk
attr title  "packets sent, sum(packetBytes)"
scalar scenarioPRJP1.node[62].udp 	droppedPkBadChecksum:count 	0
attr interpolationmode  none
attr title  "packets dropped (checksum error), count"
scalar scenarioPRJP1.node[62].udp 	droppedPkWrongPort:count 	0
attr interpolationmode  none
attr title  "packets dropped (wrong port), count"
scalar scenarioPRJP1.node[62].udp 	passedUpPk:count 	160
attr interpolationmode  none
attr title  "packets passed up, count"
scalar scenarioPRJP1.node[62].udp 	rcvdPk:count 	160
attr interpolationmode  none
attr source  rcvdPk
attr title  "packets received, count"
scalar scenarioPRJP1.node[62].udp 	rcvdPk:sum(packetBytes) 	83200
attr interpolationmode  none
attr source  rcvdPk
attr title  "packets received, sum(packetBytes)"
scalar scenarioPRJP1.node[62].udp 	sentPk:count 	2623
attr interpolationmode  none
attr source  sentPk
attr title  "packets sent, count"
scalar scenarioPRJP1.node[62].udp 	sentPk:sum(packetBytes) 	1363960
attr interpolationmode  none
attr source  sentPk
attr title  "packets sent, sum(packetBytes)"
scalar scenarioPRJP1.node[62].networkLayer.arp 	failedARPResolution:count 	5
attr title  "ARP failed resolutions, count"
scalar scenarioPRJP1.node[62].networkLayer.arp 	completedARPResolution:count 	339
attr title  "ARP completed resolutions, count"
scalar scenarioPRJP1.node[62].networkLayer.arp 	initiatedARPResolution:count 	63
attr title  "ARP initiated resolutions, count"
scalar scenarioPRJP1.node[62].networkLayer.arp 	sentReply:count 	39
attr title  "ARP replies sent, count"
scalar scenarioPRJP1.node[62].networkLayer.arp 	sentReq:count 	94
attr title  "ARP request sent, count"
scalar scenarioPRJP1.node[62].mobility 	startTime 	7.3
scalar scenarioPRJP1.node[62].mobility 	totalTime 	942.7
scalar scenarioPRJP1.node[62].mobility 	stopTime 	950
scalar scenarioPRJP1.node[62].mobility 	minSpeed 	2.4754900589501e-13
scalar scenarioPRJP1.node[62].mobility 	maxSpeed 	17.097933538364
scalar scenarioPRJP1.node[62].mobility 	totalDistance 	9678.1842743109
scalar scenarioPRJP1.node[62].mobility 	totalCO2Emission 	2428.0254168768
scalar scenarioPRJP1.node[62].wlan.mgmt 	dataQueueLen:max 	3
attr interpolationmode  sample-hold
attr title  "data queue length, max"
scalar scenarioPRJP1.node[62].wlan.mgmt 	dataQueueLen:timeavg 	0
attr interpolationmode  sample-hold
attr title  "data queue length, timeavg"
scalar scenarioPRJP1.node[62].wlan.mgmt 	dropPkByQueue:count 	0
attr interpolationmode  none
attr source  dropPkByQueue
attr title  "packets dropped by queue, count"
scalar scenarioPRJP1.node[62].wlan.mgmt 	dropPkByQueue:sum(packetBytes) 	0
attr interpolationmode  none
attr source  dropPkByQueue
attr title  "packets dropped by queue, sum(packetBytes)"
scalar scenarioPRJP1.node[62].wlan.mac 	"number of received packets" 	1630
scalar scenarioPRJP1.node[62].wlan.mac 	"number of collisions" 	3794
scalar scenarioPRJP1.node[62].wlan.mac 	"number of internal collisions" 	3
scalar scenarioPRJP1.node[62].wlan.mac 	"number of retry for AC 0" 	2581
scalar scenarioPRJP1.node[62].wlan.mac 	"number of retry for AC 1" 	64
scalar scenarioPRJP1.node[62].wlan.mac 	"number of retry for AC 2" 	0
scalar scenarioPRJP1.node[62].wlan.mac 	"number of retry for AC 3" 	0
scalar scenarioPRJP1.node[62].wlan.mac 	"sent and received bits" 	24365440
scalar scenarioPRJP1.node[62].wlan.mac 	"sent packet within AC 0" 	493
scalar scenarioPRJP1.node[62].wlan.mac 	"sent packet within AC 1" 	60
scalar scenarioPRJP1.node[62].wlan.mac 	"sent packet within AC 2" 	0
scalar scenarioPRJP1.node[62].wlan.mac 	"sent packet within AC 3" 	0
scalar scenarioPRJP1.node[62].wlan.mac 	"sent in TXOP " 	0
scalar scenarioPRJP1.node[62].wlan.mac 	"sentWithoutRetry AC 0" 	461
scalar scenarioPRJP1.node[62].wlan.mac 	"sentWithoutRetry AC 1" 	58
scalar scenarioPRJP1.node[62].wlan.mac 	"sentWithoutRetry AC 2" 	0
scalar scenarioPRJP1.node[62].wlan.mac 	"sentWithoutRetry AC 3" 	0
scalar scenarioPRJP1.node[62].wlan.mac 	"numGivenUp AC 0" 	418
scalar scenarioPRJP1.node[62].wlan.mac 	"numGivenUp AC 1" 	10
scalar scenarioPRJP1.node[62].wlan.mac 	"numGivenUp AC 2" 	0
scalar scenarioPRJP1.node[62].wlan.mac 	"numGivenUp AC 3" 	0
scalar scenarioPRJP1.node[62].wlan.mac 	"numDropped AC 0" 	0
scalar scenarioPRJP1.node[62].wlan.mac 	"numDropped AC 1" 	0
scalar scenarioPRJP1.node[62].wlan.mac 	"numDropped AC 2" 	0
scalar scenarioPRJP1.node[62].wlan.mac 	"numDropped AC 3" 	0
scalar scenarioPRJP1.node[62].wlan.mac 	rcvdPkFromLL:count 	32705
attr interpolationmode  none
attr source  packetReceivedFromLower
attr title  "packets received from lower layer, count"
scalar scenarioPRJP1.node[62].wlan.mac 	rcvdPkFromLL:sum(packetBytes) 	19339314
attr interpolationmode  none
attr source  packetReceivedFromLower
attr title  "packets received from lower layer, sum(packetBytes)"
scalar scenarioPRJP1.node[62].wlan.mac 	sentDownPk:count 	7962
attr interpolationmode  none
attr source  packetSentToLower
attr title  "packets sent to lower layer, count"
scalar scenarioPRJP1.node[62].wlan.mac 	sentDownPk:sum(packetBytes) 	4698668
attr interpolationmode  none
attr source  packetSentToLower
attr title  "packets sent to lower layer, sum(packetBytes)"
scalar scenarioPRJP1.node[62].wlan.mac 	rcvdPkFromHL:count 	3690
attr interpolationmode  none
attr source  packetReceivedFromUpper
attr title  "packets received from higher layer, count"
scalar scenarioPRJP1.node[62].wlan.mac 	rcvdPkFromHL:sum(packetBytes) 	3274120
attr interpolationmode  none
attr source  packetReceivedFromUpper
attr title  "packets received from higher layer, sum(packetBytes)"
scalar scenarioPRJP1.node[62].wlan.mac 	passedUpPk:count 	11795
attr interpolationmode  none
attr source  packetSentToUpper
attr title  "packets passed to higher layer, count"
scalar scenarioPRJP1.node[62].wlan.mac 	passedUpPk:sum(packetBytes) 	11700056
attr interpolationmode  none
attr source  packetSentToUpper
attr title  "packets passed to higher layer, sum(packetBytes)"
statistic scenarioPRJP1.node[62].wlan.radio 	radioChannel:histogram
field count 1
field mean 3
field stddev -nan
field sum 3
field sqrsum 9
field min 3
field max 3
attr interpolationmode  sample-hold
attr source  radioChannelChanged
attr title  "Radio channel, histogram"
bin	-INF	0
bin	2	0
bin	3	1
bin	4	0
scalar scenarioPRJP1.node[62].wlan.radio 	transmissionState:count 	31846
attr interpolationmode  sample-hold
attr source  transmissionStateChanged
attr title  "Radio transmission state, count"
scalar scenarioPRJP1.node[62].wlan.radio 	receptionState:count 	81766
attr interpolationmode  sample-hold
attr source  receptionStateChanged
attr title  "Radio reception state, count"
scalar scenarioPRJP1.node[62].wlan.radio 	radioMode:count 	15925
attr interpolationmode  sample-hold
attr source  radioModeChanged
attr title  "Radio mode, count"
statistic scenarioPRJP1.node[62].wlan.radio 	symbolErrorRate:histogram
field count 0
field mean -nan
field stddev -nan
field sum 0
field sqrsum 0
field min -nan
field max -nan
attr source  symbolErrorRate
attr title  "Symbol error rate, histogram"
bin	-INF	0
bin	-0.5	0
bin	-0.46666666666667	0
bin	-0.43333333333333	0
bin	-0.4	0
bin	-0.36666666666667	0
bin	-0.33333333333333	0
bin	-0.3	0
bin	-0.26666666666667	0
bin	-0.23333333333333	0
bin	-0.2	0
bin	-0.16666666666667	0
bin	-0.13333333333333	0
bin	-0.1	0
bin	-0.066666666666667	0
bin	-0.033333333333333	0
bin	0	0
bin	0.033333333333333	0
bin	0.066666666666667	0
bin	0.1	0
bin	0.13333333333333	0
bin	0.16666666666667	0
bin	0.2	0
bin	0.23333333333333	0
bin	0.26666666666667	0
bin	0.3	0
bin	0.33333333333333	0
bin	0.36666666666667	0
bin	0.4	0
bin	0.43333333333333	0
bin	0.46666666666667	0
bin	0.5	0
statistic scenarioPRJP1.node[62].wlan.radio 	bitErrorRate:histogram
field count 0
field mean -nan
field stddev -nan
field sum 0
field sqrsum 0
field min -nan
field max -nan
attr source  bitErrorRate
attr title  "Bit error rate, histogram"
bin	-INF	0
bin	-0.5	0
bin	-0.46666666666667	0
bin	-0.43333333333333	0
bin	-0.4	0
bin	-0.36666666666667	0
bin	-0.33333333333333	0
bin	-0.3	0
bin	-0.26666666666667	0
bin	-0.23333333333333	0
bin	-0.2	0
bin	-0.16666666666667	0
bin	-0.13333333333333	0
bin	-0.1	0
bin	-0.066666666666667	0
bin	-0.033333333333333	0
bin	0	0
bin	0.033333333333333	0
bin	0.066666666666667	0
bin	0.1	0
bin	0.13333333333333	0
bin	0.16666666666667	0
bin	0.2	0
bin	0.23333333333333	0
bin	0.26666666666667	0
bin	0.3	0
bin	0.33333333333333	0
bin	0.36666666666667	0
bin	0.4	0
bin	0.43333333333333	0
bin	0.46666666666667	0
bin	0.5	0
statistic scenarioPRJP1.node[62].wlan.radio 	packetErrorRate:histogram
field count 32705
field mean 0.10884821360234
field stddev 0.30343829552007
field sum 3559.8808258647
field sqrsum 3398.700901181
field min 0
field max 1
attr source  packetErrorRate
attr title  "Packet error rate, histogram"
bin	-INF	0
bin	-0.40289912804275	0
bin	-0.34917924430371	0
bin	-0.29545936056468	0
bin	-0.24173947682565	0
bin	-0.18801959308662	0
bin	-0.13429970934758	0
bin	-0.08057982560855	0
bin	-0.026859941869517	28421
bin	0.026859941869517	286
bin	0.08057982560855	121
bin	0.13429970934758	93
bin	0.18801959308662	68
bin	0.24173947682565	52
bin	0.29545936056468	36
bin	0.34917924430371	43
bin	0.40289912804275	44
bin	0.45661901178178	33
bin	0.51033889552081	40
bin	0.56405877925985	25
bin	0.61777866299888	43
bin	0.67149854673791	43
bin	0.72521843047695	30
bin	0.77893831421598	40
bin	0.83265819795501	48
bin	0.88637808169404	50
bin	0.94009796543308	100
bin	0.99381784917211	3089
bin	1.0475377329111	0
bin	1.1012576166502	0
bin	1.1549775003892	0
bin	1.2086973841282	0
statistic scenarioPRJP1.node[62].wlan.radio 	minSNIR:histogram
field count 32705
field mean 9544.0234471429
field stddev 63074.897035987
field sum 312137286.83881
field sqrsum 1.3309003355534e+14
field min 0.00038403356848343
field max 753239.71923441
attr source  minSNIR
attr title  "Min SNIR, histogram"
bin	-INF	0
bin	-13717.115288054	0
bin	-11887.89619456	0
bin	-10058.677101067	0
bin	-8229.4580075738	0
bin	-6400.2389140804	0
bin	-4571.0198205871	0
bin	-2741.8007270937	0
bin	-912.5816336004	26468
bin	916.63745989295	2033
bin	2745.8565533863	760
bin	4575.0756468796	377
bin	6404.294740373	319
bin	8233.5138338663	230
bin	10062.73292736	189
bin	11891.952020853	153
bin	13721.171114346	217
bin	15550.39020784	160
bin	17379.609301333	104
bin	19208.828394826	68
bin	21038.04748832	114
bin	22867.266581813	105
bin	24696.485675306	33
bin	26525.7047688	31
bin	28354.923862293	29
bin	30184.142955787	47
bin	32013.36204928	55
bin	33842.581142773	31
bin	35671.800236267	16
bin	37501.01932976	49
bin	39330.238423253	8
bin	41159.457516747	1109
scalar scenarioPRJP1.node[62].lo0.lo 	droppedPkBitError:count 	0
attr interpolationmode  none
attr source  dropPkBitError
attr title  "packets dropped/bit error, count"
scalar scenarioPRJP1.node[62].lo0.lo 	droppedPkBitError:sum(packetBytes) 	0
attr interpolationmode  none
attr source  dropPkBitError
attr title  "packets dropped/bit error, sum(packetBytes)"
scalar scenarioPRJP1.node[62].lo0.lo 	rcvdPkFromHL:count 	6
attr interpolationmode  none
attr source  packetReceivedFromUpper
attr title  "packets received from higher layer, count"
scalar scenarioPRJP1.node[62].lo0.lo 	rcvdPkFromHL:sum(packetBytes) 	336
attr interpolationmode  none
attr source  packetReceivedFromUpper
attr title  "packets received from higher layer, sum(packetBytes)"
scalar scenarioPRJP1.node[62].lo0.lo 	passedUpPk:count 	6
attr interpolationmode  none
attr source  packetSentToUpper
attr title  "packets passed to higher layer, count"
scalar scenarioPRJP1.node[62].lo0.lo 	passedUpPk:sum(packetBytes) 	336
attr interpolationmode  none
attr source  packetSentToUpper
attr title  "packets passed to higher layer, sum(packetBytes)"
scalar scenarioPRJP1.node[1].app 	"Total sent" 	2626
scalar scenarioPRJP1.node[1].app 	"Total received" 	240
scalar scenarioPRJP1.node[1].app 	"Total deleted" 	0
scalar scenarioPRJP1.node[1].app 	dropPk:count 	0
attr interpolationmode  none
attr source  dropPk
attr title  "packets dropped, count"
scalar scenarioPRJP1.node[1].app 	dropPk:sum(packetBytes) 	0
attr interpolationmode  none
attr source  dropPk
attr title  "packets dropped, sum(packetBytes)"
scalar scenarioPRJP1.node[1].app 	outOfOrderPk:count 	0
attr interpolationmode  none
attr source  outOfOrderPk
attr title  "packets received out of order, count"
scalar scenarioPRJP1.node[1].app 	outOfOrderPk:sum(packetBytes) 	0
attr interpolationmode  none
attr source  outOfOrderPk
attr title  "packets received out of order, sum(packetBytes)"
scalar scenarioPRJP1.node[1].app 	rcvdPk:count 	240
attr interpolationmode  none
attr source  rcvdPk
attr title  "packets received, count"
scalar scenarioPRJP1.node[1].app 	rcvdPk:sum(packetBytes) 	122880
attr interpolationmode  none
attr source  rcvdPk
attr title  "packets received, sum(packetBytes)"
statistic scenarioPRJP1.node[1].app 	endToEndDelay:histogram
field count 240
field mean 0.080001194851479
field stddev 0.33395352261443
field sum 19.200286764355
field sqrsum 28.190510191354
field min 0.000945011007
field max 2.055826842778
attr interpolationmode  none
attr source  messageAge(rcvdPk)
attr title  "delay, histogram"
attr unit  s
bin	-INF	0
bin	-1.0264959048785	0
bin	-0.88950378276043	0
bin	-0.75251166064237	0
bin	-0.6155195385243	0
bin	-0.47852741640623	0
bin	-0.34153529428817	0
bin	-0.2045431721701	0
bin	-0.067551050052033	225
bin	0.069441072066033	2
bin	0.2064331941841	1
bin	0.34342531630217	0
bin	0.48041743842023	1
bin	0.6174095605383	1
bin	0.75440168265637	0
bin	0.89139380477443	2
bin	1.0283859268925	2
bin	1.1653780490106	0
bin	1.3023701711286	0
bin	1.4393622932467	0
bin	1.5763544153648	1
bin	1.7133465374828	0
bin	1.8503386596009	0
bin	1.987330781719	5
bin	2.124322903837	0
bin	2.2613150259551	0
bin	2.3983071480732	0
bin	2.5352992701912	0
bin	2.6722913923093	0
bin	2.8092835144274	0
bin	2.9462756365454	0
bin	3.0832677586635	0
scalar scenarioPRJP1.node[1].app 	sentPk:count 	2626
attr interpolationmode  none
attr source  sentPk
attr title  "packets sent, count"
scalar scenarioPRJP1.node[1].app 	sentPk:sum(packetBytes) 	1344512
attr interpolationmode  none
attr source  sentPk
attr title  "packets sent, sum(packetBytes)"
scalar scenarioPRJP1.node[1].udp 	droppedPkBadChecksum:count 	0
attr interpolationmode  none
attr title  "packets dropped (checksum error), count"
scalar scenarioPRJP1.node[1].udp 	droppedPkWrongPort:count 	0
attr interpolationmode  none
attr title  "packets dropped (wrong port), count"
scalar scenarioPRJP1.node[1].udp 	passedUpPk:count 	240
attr interpolationmode  none
attr title  "packets passed up, count"
scalar scenarioPRJP1.node[1].udp 	rcvdPk:count 	240
attr interpolationmode  none
attr source  rcvdPk
attr title  "packets received, count"
scalar scenarioPRJP1.node[1].udp 	rcvdPk:sum(packetBytes) 	124800
attr interpolationmode  none
attr source  rcvdPk
attr title  "packets received, sum(packetBytes)"
scalar scenarioPRJP1.node[1].udp 	sentPk:count 	2626
attr interpolationmode  none
attr source  sentPk
attr title  "packets sent, count"
scalar scenarioPRJP1.node[1].udp 	sentPk:sum(packetBytes) 	1365520
attr interpolationmode  none
attr source  sentPk
attr title  "packets sent, sum(packetBytes)"
scalar scenarioPRJP1.node[1].networkLayer.arp 	failedARPResolution:count 	3
attr title  "ARP failed resolutions, count"
scalar scenarioPRJP1.node[1].networkLayer.arp 	completedARPResolution:count 	499
attr title  "ARP completed resolutions, count"
scalar scenarioPRJP1.node[1].networkLayer.arp 	initiatedARPResolution:count 	49
attr title  "ARP initiated resolutions, count"
scalar scenarioPRJP1.node[1].networkLayer.arp 	sentReply:count 	56
attr title  "ARP replies sent, count"
scalar scenarioPRJP1.node[1].networkLayer.arp 	sentReq:count 	65
attr title  "ARP request sent, count"
scalar scenarioPRJP1.node[1].mobility 	startTime 	0.1
scalar scenarioPRJP1.node[1].mobility 	totalTime 	949.9
scalar scenarioPRJP1.node[1].mobility 	stopTime 	950
scalar scenarioPRJP1.node[1].mobility 	minSpeed 	2.4754529509821e-13
scalar scenarioPRJP1.node[1].mobility 	maxSpeed 	18.436217565897
scalar scenarioPRJP1.node[1].mobility 	totalDistance 	10000.950746547
scalar scenarioPRJP1.node[1].mobility 	totalCO2Emission 	2727.721506384
scalar scenarioPRJP1.node[1].wlan.mgmt 	dataQueueLen:max 	0
attr interpolationmode  sample-hold
attr title  "data queue length, max"
scalar scenarioPRJP1.node[1].wlan.mgmt 	dataQueueLen:timeavg 	0
attr interpolationmode  sample-hold
attr title  "data queue length, timeavg"
scalar scenarioPRJP1.node[1].wlan.mgmt 	dropPkByQueue:count 	0
attr interpolationmode  none
attr source  dropPkByQueue
attr title  "packets dropped by queue, count"
scalar scenarioPRJP1.node[1].wlan.mgmt 	dropPkByQueue:sum(packetBytes) 	0
attr interpolationmode  none
attr source  dropPkByQueue
attr title  "packets dropped by queue, sum(packetBytes)"
scalar scenarioPRJP1.node[1].wlan.mac 	"number of received packets" 	1847
scalar scenarioPRJP1.node[1].wlan.mac 	"number of collisions" 	4636
scalar scenarioPRJP1.node[1].wlan.mac 	"number of internal collisions" 	0
scalar scenarioPRJP1.node[1].wlan.mac 	"number of retry for AC 0" 	2531
scalar scenarioPRJP1.node[1].wlan.mac 	"number of retry for AC 1" 	89
scalar scenarioPRJP1.node[1].wlan.mac 	"number of retry for AC 2" 	0
scalar scenarioPRJP1.node[1].wlan.mac 	"number of retry for AC 3" 	0
scalar scenarioPRJP1.node[1].wlan.mac 	"sent and received bits" 	26120416
scalar scenarioPRJP1.node[1].wlan.mac 	"sent packet within AC 0" 	766
scalar scenarioPRJP1.node[1].wlan.mac 	"sent packet within AC 1" 	38
scalar scenarioPRJP1.node[1].wlan.mac 	"sent packet within AC 2" 	0
scalar scenarioPRJP1.node[1].wlan.mac 	"sent packet within AC 3" 	0
scalar scenarioPRJP1.node[1].wlan.mac 	"sent in TXOP " 	0
scalar scenarioPRJP1.node[1].wlan.mac 	"sentWithoutRetry AC 0" 	722
scalar scenarioPRJP1.node[1].wlan.mac 	"sentWithoutRetry AC 1" 	36
scalar scenarioPRJP1.node[1].wlan.mac 	"sentWithoutRetry AC 2" 	0
scalar scenarioPRJP1.node[1].wlan.mac 	"sentWithoutRetry AC 3" 	0
scalar scenarioPRJP1.node[1].wlan.mac 	"numGivenUp AC 0" 	405
scalar scenarioPRJP1.node[1].wlan.mac 	"numGivenUp AC 1" 	14
scalar scenarioPRJP1.node[1].wlan.mac 	"numGivenUp AC 2" 	0
scalar scenarioPRJP1.node[1].wlan.mac 	"numGivenUp AC 3" 	0
scalar scenarioPRJP1.node[1].wlan.mac 	"numDropped AC 0" 	0
scalar scenarioPRJP1.node[1].wlan.mac 	"numDropped AC 1" 	0
scalar scenarioPRJP1.node[1].wlan.mac 	"numDropped AC 2" 	0
scalar scenarioPRJP1.node[1].wlan.mac 	"numDropped AC 3" 	0
scalar scenarioPRJP1.node[1].wlan.mac 	rcvdPkFromLL:count 	50671
attr interpolationmode  none
attr source  packetReceivedFromLower
attr title  "packets received from lower layer, count"
scalar scenarioPRJP1.node[1].wlan.mac 	rcvdPkFromLL:sum(packetBytes) 	28508804
attr interpolationmode  none
attr source  packetReceivedFromLower
attr title  "packets received from lower layer, sum(packetBytes)"
scalar scenarioPRJP1.node[1].wlan.mac 	sentDownPk:count 	8448
attr interpolationmode  none
attr source  packetSentToLower
attr title  "packets sent to lower layer, count"
scalar scenarioPRJP1.node[1].wlan.mac 	sentDownPk:sum(packetBytes) 	4897826
attr interpolationmode  none
attr source  packetSentToLower
attr title  "packets sent to lower layer, sum(packetBytes)"
scalar scenarioPRJP1.node[1].wlan.mac 	rcvdPkFromHL:count 	3981
attr interpolationmode  none
attr source  packetReceivedFromUpper
attr title  "packets received from higher layer, count"
scalar scenarioPRJP1.node[1].wlan.mac 	rcvdPkFromHL:sum(packetBytes) 	3486820
attr interpolationmode  none
attr source  packetReceivedFromUpper
attr title  "packets received from higher layer, sum(packetBytes)"
scalar scenarioPRJP1.node[1].wlan.mac 	passedUpPk:count 	16283
attr interpolationmode  none
attr source  packetSentToUpper
attr title  "packets passed to higher layer, count"
scalar scenarioPRJP1.node[1].wlan.mac 	passedUpPk:sum(packetBytes) 	16092388
attr interpolationmode  none
attr source  packetSentToUpper
attr title  "packets passed to higher layer, sum(packetBytes)"
statistic scenarioPRJP1.node[1].wlan.radio 	radioChannel:histogram
field count 1
field mean 3
field stddev -nan
field sum 3
field sqrsum 9
field min 3
field max 3
attr interpolationmode  sample-hold
attr source  radioChannelChanged
attr title  "Radio channel, histogram"
bin	-INF	0
bin	2	0
bin	3	1
bin	4	0
scalar scenarioPRJP1.node[1].wlan.radio 	transmissionState:count 	33792
attr interpolationmode  sample-hold
attr source  transmissionStateChanged
attr title  "Radio transmission state, count"
scalar scenarioPRJP1.node[1].wlan.radio 	receptionState:count 	119008
attr interpolationmode  sample-hold
attr source  receptionStateChanged
attr title  "Radio reception state, count"
scalar scenarioPRJP1.node[1].wlan.radio 	radioMode:count 	16898
attr interpolationmode  sample-hold
attr source  radioModeChanged
attr title  "Radio mode, count"
statistic scenarioPRJP1.node[1].wlan.radio 	symbolErrorRate:histogram
field count 0
field mean -nan
field stddev -nan
field sum 0
field sqrsum 0
field min -nan
field max -nan
attr source  symbolErrorRate
attr title  "Symbol error rate, histogram"
bin	-INF	0
bin	-0.5	0
bin	-0.46666666666667	0
bin	-0.43333333333333	0
bin	-0.4	0
bin	-0.36666666666667	0
bin	-0.33333333333333	0
bin	-0.3	0
bin	-0.26666666666667	0
bin	-0.23333333333333	0
bin	-0.2	0
bin	-0.16666666666667	0
bin	-0.13333333333333	0
bin	-0.1	0
bin	-0.066666666666667	0
bin	-0.033333333333333	0
bin	0	0
bin	0.033333333333333	0
bin	0.066666666666667	0
bin	0.1	0
bin	0.13333333333333	0
bin	0.16666666666667	0
bin	0.2	0
bin	0.23333333333333	0
bin	0.26666666666667	0
bin	0.3	0
bin	0.33333333333333	0
bin	0.36666666666667	0
bin	0.4	0
bin	0.43333333333333	0
bin	0.46666666666667	0
bin	0.5	0
statistic scenarioPRJP1.node[1].wlan.radio 	bitErrorRate:histogram
field count 0
field mean -nan
field stddev -nan
field sum 0
field sqrsum 0
field min -nan
field max -nan
attr source  bitErrorRate
attr title  "Bit error rate, histogram"
bin	-INF	0
bin	-0.5	0
bin	-0.46666666666667	0
bin	-0.43333333333333	0
bin	-0.4	0
bin	-0.36666666666667	0
bin	-0.33333333333333	0
bin	-0.3	0
bin	-0.26666666666667	0
bin	-0.23333333333333	0
bin	-0.2	0
bin	-0.16666666666667	0
bin	-0.13333333333333	0
bin	-0.1	0
bin	-0.066666666666667	0
bin	-0.033333333333333	0
bin	0	0
bin	0.033333333333333	0
bin	0.066666666666667	0
bin	0.1	0
bin	0.13333333333333	0
bin	0.16666666666667	0
bin	0.2	0
bin	0.23333333333333	0
bin	0.26666666666667	0
bin	0.3	0
bin	0.33333333333333	0
bin	0.36666666666667	0
bin	0.4	0
bin	0.43333333333333	0
bin	0.46666666666667	0
bin	0.5	0
statistic scenarioPRJP1.node[1].wlan.radio 	packetErrorRate:histogram
field count 50671
field mean 0.085990684680088
field stddev 0.27354395447262
field sum 4357.2339834247
field sqrsum 4166.129902641
field min 0
field max 1
attr source  packetErrorRate
attr title  "Packet error rate, histogram"
bin	-INF	0
bin	-0.029360201165145	0
bin	-0.025445507676459	0
bin	-0.021530814187773	0
bin	-0.017616120699087	0
bin	-0.013701427210401	0
bin	-0.0097867337217151	0
bin	-0.005872040233029	0
bin	-0.001957346744343	44748
bin	0.001957346744343	315
bin	0.005872040233029	124
bin	0.0097867337217151	103
bin	0.013701427210401	77
bin	0.017616120699087	57
bin	0.021530814187773	42
bin	0.025445507676459	29
bin	0.029360201165145	30
bin	0.033274894653831	32
bin	0.037189588142517	35
bin	0.041104281631203	29
bin	0.045018975119889	24
bin	0.048933668608575	19
bin	0.052848362097261	23
bin	0.056763055585947	22
bin	0.060677749074633	24
bin	0.064592442563319	16
bin	0.068507136052005	18
bin	0.072421829540692	16
bin	0.076336523029378	14
bin	0.080251216518064	17
bin	0.08416591000675	14
bin	0.088080603495436	4843
statistic scenarioPRJP1.node[1].wlan.radio 	minSNIR:histogram
field count 50671
field mean 10564.703718708
field stddev 65732.739286052
field sum 535324102.13067
field sqrsum 2.2459012255431e+14
field min 0.00017114041065875
field max 753239.71923443
attr source  minSNIR
attr title  "Min SNIR, histogram"
bin	-INF	0
bin	-14504.577795085	0
bin	-12570.297626041	0
bin	-10636.017456998	0
bin	-8701.7372879547	0
bin	-6767.4571189114	0
bin	-4833.1769498681	0
bin	-2898.8967808248	0
bin	-964.61661178151	38653
bin	969.66355726178	3858
bin	2903.9437263051	1417
bin	4838.2238953484	843
bin	6772.5040643917	671
bin	8706.784233435	436
bin	10641.064402478	485
bin	12575.344571522	631
bin	14509.624740565	303
bin	16443.904909608	176
bin	18378.185078651	260
bin	20312.465247695	194
bin	22246.745416738	85
bin	24181.025585781	86
bin	26115.305754825	156
bin	28049.585923868	117
bin	29983.866092911	117
bin	31918.146261955	34
bin	33852.426430998	66
bin	35786.706600041	46
bin	37720.986769084	37
bin	39655.266938128	38
bin	41589.547107171	106
bin	43523.827276214	1856
scalar scenarioPRJP1.node[1].lo0.lo 	droppedPkBitError:count 	0
attr interpolationmode  none
attr source  dropPkBitError
attr title  "packets dropped/bit error, count"
scalar scenarioPRJP1.node[1].lo0.lo 	droppedPkBitError:sum(packetBytes) 	0
attr interpolationmode  none
attr source  dropPkBitError
attr title  "packets dropped/bit error, sum(packetBytes)"
scalar scenarioPRJP1.node[1].lo0.lo 	rcvdPkFromHL:count 	6
attr interpolationmode  none
attr source  packetReceivedFromUpper
attr title  "packets received from higher layer, count"
scalar scenarioPRJP1.node[1].lo0.lo 	rcvdPkFromHL:sum(packetBytes) 	336
attr interpolationmode  none
attr source  packetReceivedFromUpper
attr title  "packets received from higher layer, sum(packetBytes)"
scalar scenarioPRJP1.node[1].lo0.lo 	passedUpPk:count 	6
attr interpolationmode  none
attr source  packetSentToUpper
attr title  "packets passed to higher layer, count"
scalar scenarioPRJP1.node[1].lo0.lo 	passedUpPk:sum(packetBytes) 	336
attr interpolationmode  none
attr source  packetSentToUpper
attr title  "packets passed to higher layer, sum(packetBytes)"
scalar scenarioPRJP1.node[38].app 	"Total sent" 	2599
scalar scenarioPRJP1.node[38].app 	"Total received" 	171
scalar scenarioPRJP1.node[38].app 	"Total deleted" 	0
scalar scenarioPRJP1.node[38].app 	dropPk:count 	0
attr interpolationmode  none
attr source  dropPk
attr title  "packets dropped, count"
scalar scenarioPRJP1.node[38].app 	dropPk:sum(packetBytes) 	0
attr interpolationmode  none
attr source  dropPk
attr title  "packets dropped, sum(packetBytes)"
scalar scenarioPRJP1.node[38].app 	outOfOrderPk:count 	0
attr interpolationmode  none
attr source  outOfOrderPk
attr title  "packets received out of order, count"
scalar scenarioPRJP1.node[38].app 	outOfOrderPk:sum(packetBytes) 	0
attr interpolationmode  none
attr source  outOfOrderPk
attr title  "packets received out of order, sum(packetBytes)"
scalar scenarioPRJP1.node[38].app 	rcvdPk:count 	171
attr interpolationmode  none
attr source  rcvdPk
attr title  "packets received, count"
scalar scenarioPRJP1.node[38].app 	rcvdPk:sum(packetBytes) 	87552
attr interpolationmode  none
attr source  rcvdPk
attr title  "packets received, sum(packetBytes)"
statistic scenarioPRJP1.node[38].app 	endToEndDelay:histogram
field count 171
field mean 0.05682304372993
field stddev 0.28435256025963
field sum 9.716740477818
field sqrsum 14.297719118539
field min 0.00093551757
field max 3.063221180464
attr interpolationmode  none
attr source  messageAge(rcvdPk)
attr title  "delay, histogram"
attr unit  s
bin	-INF	0
bin	-0.5312495968585	0
bin	-0.46029158160137	0
bin	-0.38933356634423	0
bin	-0.3183755510871	0
bin	-0.24741753582997	0
bin	-0.17645952057283	0
bin	-0.1055015053157	0
bin	-0.034543490058566	151
bin	0.036414525198567	14
bin	0.1073725404557	0
bin	0.17833055571283	0
bin	0.24928857096997	0
bin	0.3202465862271	0
bin	0.39120460148423	0
bin	0.46216261674137	0
bin	0.5331206319985	0
bin	0.60407864725563	0
bin	0.67503666251277	0
bin	0.7459946777699	1
bin	0.81695269302703	0
bin	0.88791070828417	0
bin	0.9588687235413	3
bin	1.0298267387984	1
bin	1.1007847540556	0
bin	1.1717427693127	0
bin	1.2427007845698	0
bin	1.313658799827	0
bin	1.3846168150841	0
bin	1.4555748303412	0
bin	1.5265328455984	0
bin	1.5974908608555	1
scalar scenarioPRJP1.node[38].app 	sentPk:count 	2599
attr interpolationmode  none
attr source  sentPk
attr title  "packets sent, count"
scalar scenarioPRJP1.node[38].app 	sentPk:sum(packetBytes) 	1330688
attr interpolationmode  none
attr source  sentPk
attr title  "packets sent, sum(packetBytes)"
scalar scenarioPRJP1.node[38].udp 	droppedPkBadChecksum:count 	0
attr interpolationmode  none
attr title  "packets dropped (checksum error), count"
scalar scenarioPRJP1.node[38].udp 	droppedPkWrongPort:count 	0
attr interpolationmode  none
attr title  "packets dropped (wrong port), count"
scalar scenarioPRJP1.node[38].udp 	passedUpPk:count 	171
attr interpolationmode  none
attr title  "packets passed up, count"
scalar scenarioPRJP1.node[38].udp 	rcvdPk:count 	171
attr interpolationmode  none
attr source  rcvdPk
attr title  "packets received, count"
scalar scenarioPRJP1.node[38].udp 	rcvdPk:sum(packetBytes) 	88920
attr interpolationmode  none
attr source  rcvdPk
attr title  "packets received, sum(packetBytes)"
scalar scenarioPRJP1.node[38].udp 	sentPk:count 	2599
attr interpolationmode  none
attr source  sentPk
attr title  "packets sent, count"
scalar scenarioPRJP1.node[38].udp 	sentPk:sum(packetBytes) 	1351480
attr interpolationmode  none
attr source  sentPk
attr title  "packets sent, sum(packetBytes)"
scalar scenarioPRJP1.node[38].networkLayer.arp 	failedARPResolution:count 	0
attr title  "ARP failed resolutions, count"
scalar scenarioPRJP1.node[38].networkLayer.arp 	completedARPResolution:count 	436
attr title  "ARP completed resolutions, count"
scalar scenarioPRJP1.node[38].networkLayer.arp 	initiatedARPResolution:count 	58
attr title  "ARP initiated resolutions, count"
scalar scenarioPRJP1.node[38].networkLayer.arp 	sentReply:count 	49
attr title  "ARP replies sent, count"
scalar scenarioPRJP1.node[38].networkLayer.arp 	sentReq:count 	76
attr title  "ARP request sent, count"
scalar scenarioPRJP1.node[38].mobility 	startTime 	2.6
scalar scenarioPRJP1.node[38].mobility 	totalTime 	947.4
scalar scenarioPRJP1.node[38].mobility 	stopTime 	950
scalar scenarioPRJP1.node[38].mobility 	minSpeed 	2.4754928432505e-13
scalar scenarioPRJP1.node[38].mobility 	maxSpeed 	17.903554695437
scalar scenarioPRJP1.node[38].mobility 	totalDistance 	8577.4863880243
scalar scenarioPRJP1.node[38].mobility 	totalCO2Emission 	2434.3009134368
scalar scenarioPRJP1.node[38].wlan.mgmt 	dataQueueLen:max 	2
attr interpolationmode  sample-hold
attr title  "data queue length, max"
scalar scenarioPRJP1.node[38].wlan.mgmt 	dataQueueLen:timeavg 	0
attr interpolationmode  sample-hold
attr title  "data queue length, timeavg"
scalar scenarioPRJP1.node[38].wlan.mgmt 	dropPkByQueue:count 	0
attr interpolationmode  none
attr source  dropPkByQueue
attr title  "packets dropped by queue, count"
scalar scenarioPRJP1.node[38].wlan.mgmt 	dropPkByQueue:sum(packetBytes) 	0
attr interpolationmode  none
attr source  dropPkByQueue
attr title  "packets dropped by queue, sum(packetBytes)"
scalar scenarioPRJP1.node[38].wlan.mac 	"number of received packets" 	1503
scalar scenarioPRJP1.node[38].wlan.mac 	"number of collisions" 	4815
scalar scenarioPRJP1.node[38].wlan.mac 	"number of internal collisions" 	0
scalar scenarioPRJP1.node[38].wlan.mac 	"number of retry for AC 0" 	2437
scalar scenarioPRJP1.node[38].wlan.mac 	"number of retry for AC 1" 	48
scalar scenarioPRJP1.node[38].wlan.mac 	"number of retry for AC 2" 	0
scalar scenarioPRJP1.node[38].wlan.mac 	"number of retry for AC 3" 	0
scalar scenarioPRJP1.node[38].wlan.mac 	"sent and received bits" 	26989952
scalar scenarioPRJP1.node[38].wlan.mac 	"sent packet within AC 0" 	645
scalar scenarioPRJP1.node[38].wlan.mac 	"sent packet within AC 1" 	40
scalar scenarioPRJP1.node[38].wlan.mac 	"sent packet within AC 2" 	0
scalar scenarioPRJP1.node[38].wlan.mac 	"sent packet within AC 3" 	0
scalar scenarioPRJP1.node[38].wlan.mac 	"sent in TXOP " 	0
scalar scenarioPRJP1.node[38].wlan.mac 	"sentWithoutRetry AC 0" 	615
scalar scenarioPRJP1.node[38].wlan.mac 	"sentWithoutRetry AC 1" 	40
scalar scenarioPRJP1.node[38].wlan.mac 	"sentWithoutRetry AC 2" 	0
scalar scenarioPRJP1.node[38].wlan.mac 	"sentWithoutRetry AC 3" 	0
scalar scenarioPRJP1.node[38].wlan.mac 	"numGivenUp AC 0" 	395
scalar scenarioPRJP1.node[38].wlan.mac 	"numGivenUp AC 1" 	8
scalar scenarioPRJP1.node[38].wlan.mac 	"numGivenUp AC 2" 	0
scalar scenarioPRJP1.node[38].wlan.mac 	"numGivenUp AC 3" 	0
scalar scenarioPRJP1.node[38].wlan.mac 	"numDropped AC 0" 	0
scalar scenarioPRJP1.node[38].wlan.mac 	"numDropped AC 1" 	0
scalar scenarioPRJP1.node[38].wlan.mac 	"numDropped AC 2" 	0
scalar scenarioPRJP1.node[38].wlan.mac 	"numDropped AC 3" 	0
scalar scenarioPRJP1.node[38].wlan.mac 	rcvdPkFromLL:count 	41138
attr interpolationmode  none
attr source  packetReceivedFromLower
attr title  "packets received from lower layer, count"
scalar scenarioPRJP1.node[38].wlan.mac 	rcvdPkFromLL:sum(packetBytes) 	23268650
attr interpolationmode  none
attr source  packetReceivedFromLower
attr title  "packets received from lower layer, sum(packetBytes)"
scalar scenarioPRJP1.node[38].wlan.mac 	sentDownPk:count 	8008
attr interpolationmode  none
attr source  packetSentToLower
attr title  "packets sent to lower layer, count"
scalar scenarioPRJP1.node[38].wlan.mac 	sentDownPk:sum(packetBytes) 	4913922
attr interpolationmode  none
attr source  packetSentToLower
attr title  "packets sent to lower layer, sum(packetBytes)"
scalar scenarioPRJP1.node[38].wlan.mac 	rcvdPkFromHL:count 	4020
attr interpolationmode  none
attr source  packetReceivedFromUpper
attr title  "packets received from higher layer, count"
scalar scenarioPRJP1.node[38].wlan.mac 	rcvdPkFromHL:sum(packetBytes) 	3585616
attr interpolationmode  none
attr source  packetReceivedFromUpper
attr title  "packets received from higher layer, sum(packetBytes)"
scalar scenarioPRJP1.node[38].wlan.mac 	passedUpPk:count 	13629
attr interpolationmode  none
attr source  packetSentToUpper
attr title  "packets passed to higher layer, count"
scalar scenarioPRJP1.node[38].wlan.mac 	passedUpPk:sum(packetBytes) 	13421732
attr interpolationmode  none
attr source  packetSentToUpper
attr title  "packets passed to higher layer, sum(packetBytes)"
statistic scenarioPRJP1.node[38].wlan.radio 	radioChannel:histogram
field count 1
field mean 3
field stddev -nan
field sum 3
field sqrsum 9
field min 3
field max 3
attr interpolationmode  sample-hold
attr source  radioChannelChanged
[...]
field count 1
field mean 3
field stddev -nan
field sum 3
field sqrsum 9
field min 3
field max 3
attr interpolationmode  sample-hold
attr source  radioChannelChanged
attr title  "Radio channel, histogram"
bin	-INF	0
bin	2	0
bin	3	1
bin	4	0
scalar scenarioPRJP1.node[56].wlan.radio 	transmissionState:count 	22484
attr interpolationmode  sample-hold
attr source  transmissionStateChanged
attr title  "Radio transmission state, count"
scalar scenarioPRJP1.node[56].wlan.radio 	receptionState:count 	68118
attr interpolationmode  sample-hold
attr source  receptionStateChanged
attr title  "Radio reception state, count"
scalar scenarioPRJP1.node[56].wlan.radio 	radioMode:count 	11244
attr interpolationmode  sample-hold
attr source  radioModeChanged
attr title  "Radio mode, count"
statistic scenarioPRJP1.node[56].wlan.radio 	symbolErrorRate:histogram
field count 0
field mean -nan
field stddev -nan
field sum 0
field sqrsum 0
field min -nan
field max -nan
attr source  symbolErrorRate
attr title  "Symbol error rate, histogram"
bin	-INF	0
bin	-0.5	0
bin	-0.46666666666667	0
bin	-0.43333333333333	0
bin	-0.4	0
bin	-0.36666666666667	0
bin	-0.33333333333333	0
bin	-0.3	0
bin	-0.26666666666667	0
bin	-0.23333333333333	0
bin	-0.2	0
bin	-0.16666666666667	0
bin	-0.13333333333333	0
bin	-0.1	0
bin	-0.066666666666667	0
bin	-0.033333333333333	0
bin	0	0
bin	0.033333333333333	0
bin	0.066666666666667	0
bin	0.1	0
bin	0.13333333333333	0
bin	0.16666666666667	0
bin	0.2	0
bin	0.23333333333333	0
bin	0.26666666666667	0
bin	0.3	0
bin	0.33333333333333	0
bin	0.36666666666667	0
bin	0.4	0
bin	0.43333333333333	0
bin	0.46666666666667	0
bin	0.5	0
statistic scenarioPRJP1.node[56].wlan.radio 	bitErrorRate:histogram
field count 0
field mean -nan
field stddev -nan
field sum 0
field sqrsum 0
field min -nan
field max -nan
attr source  bitErrorRate
attr title  "Bit error rate, histogram"
bin	-INF	0
bin	-0.5	0
bin	-0.46666666666667	0
bin	-0.43333333333333	0
bin	-0.4	0
bin	-0.36666666666667	0
bin	-0.33333333333333	0
bin	-0.3	0
bin	-0.26666666666667	0
bin	-0.23333333333333	0
bin	-0.2	0
bin	-0.16666666666667	0
bin	-0.13333333333333	0
bin	-0.1	0
bin	-0.066666666666667	0
bin	-0.033333333333333	0
bin	0	0
bin	0.033333333333333	0
bin	0.066666666666667	0
bin	0.1	0
bin	0.13333333333333	0
bin	0.16666666666667	0
bin	0.2	0
bin	0.23333333333333	0
bin	0.26666666666667	0
bin	0.3	0
bin	0.33333333333333	0
bin	0.36666666666667	0
bin	0.4	0
bin	0.43333333333333	0
bin	0.46666666666667	0
bin	0.5	0
statistic scenarioPRJP1.node[56].wlan.radio 	packetErrorRate:histogram
field count 28221
field mean 0.085111443450266
field stddev 0.27258009604951
field sum 2401.9300456099
field sqrsum 2301.1751585223
field min 0
field max 1
attr source  packetErrorRate
attr title  "Packet error rate, histogram"
bin	-INF	0
bin	-3.423425823379e-07	0
bin	-2.9669690469284e-07	0
bin	-2.5105122704779e-07	0
bin	-2.0540554940274e-07	0
bin	-1.5975987175768e-07	0
bin	-1.1411419411263e-07	0
bin	-6.8468516467579e-08	0
bin	-2.2822838822526e-08	23673
bin	2.2822838822526e-08	122
bin	6.8468516467579e-08	68
bin	1.1411419411263e-07	27
bin	1.5975987175768e-07	25
bin	2.0540554940274e-07	17
bin	2.5105122704779e-07	14
bin	2.9669690469284e-07	15
bin	3.423425823379e-07	18
bin	3.8798825998295e-07	10
bin	4.33633937628e-07	16
bin	4.7927961527305e-07	8
bin	5.2492529291811e-07	15
bin	5.7057097056316e-07	14
bin	6.1621664820821e-07	5
bin	6.6186232585326e-07	7
bin	7.0750800349832e-07	6
bin	7.5315368114337e-07	5
bin	7.9879935878842e-07	5
bin	8.4444503643348e-07	6
bin	8.9009071407853e-07	3
bin	9.3573639172358e-07	5
bin	9.8138206936863e-07	4
bin	1.0270277470137e-06	4133
statistic scenarioPRJP1.node[56].wlan.radio 	minSNIR:histogram
field count 28221
field mean 15996.265844379
field stddev 80850.448843466
field sum 451430618.39422
field sqrsum 1.9168956128864e+14
field min 0.00040725952962445
field max 753239.71923443
attr source  minSNIR
attr title  "Min SNIR, histogram"
bin	-INF	0
bin	-20283.845747311	0
bin	-17578.731645725	0
bin	-14873.61754414	0
bin	-12168.503442554	0
bin	-9463.3893409686	0
bin	-6758.2752393831	0
bin	-4053.1611377975	0
bin	-1348.047036212	21505
bin	1357.0670653735	1854
bin	4062.181166959	718
bin	6767.2952685446	469
bin	9472.4093701301	408
bin	12177.523471716	446
bin	14882.637573301	254
bin	17587.751674887	174
bin	20292.865776472	168
bin	22997.979878058	205
bin	25703.093979643	128
bin	28408.208081229	76
bin	31113.322182814	60
bin	33818.4362844	47
bin	36523.550385985	55
bin	39228.664487571	71
bin	41933.778589156	93
bin	44638.892690742	23
bin	47344.006792327	40
bin	50049.120893913	26
bin	52754.234995499	27
bin	55459.349097084	28
bin	58164.46319867	24
bin	60869.577300255	1322
scalar scenarioPRJP1.node[56].lo0.lo 	droppedPkBitError:count 	0
attr interpolationmode  none
attr source  dropPkBitError
attr title  "packets dropped/bit error, count"
scalar scenarioPRJP1.node[56].lo0.lo 	droppedPkBitError:sum(packetBytes) 	0
attr interpolationmode  none
attr source  dropPkBitError
attr title  "packets dropped/bit error, sum(packetBytes)"
scalar scenarioPRJP1.node[56].lo0.lo 	rcvdPkFromHL:count 	3
attr interpolationmode  none
attr source  packetReceivedFromUpper
attr title  "packets received from higher layer, count"
scalar scenarioPRJP1.node[56].lo0.lo 	rcvdPkFromHL:sum(packetBytes) 	168
attr interpolationmode  none
attr source  packetReceivedFromUpper
attr title  "packets received from higher layer, sum(packetBytes)"
scalar scenarioPRJP1.node[56].lo0.lo 	passedUpPk:count 	3
attr interpolationmode  none
attr source  packetSentToUpper
attr title  "packets passed to higher layer, count"
scalar scenarioPRJP1.node[56].lo0.lo 	passedUpPk:sum(packetBytes) 	168
attr interpolationmode  none
attr source  packetSentToUpper
attr title  "packets passed to higher layer, sum(packetBytes)"
scalar scenarioPRJP1.node[73].app 	"Total sent" 	2609
scalar scenarioPRJP1.node[73].app 	"Total received" 	193
scalar scenarioPRJP1.node[73].app 	"Total deleted" 	0
scalar scenarioPRJP1.node[73].app 	dropPk:count 	0
attr interpolationmode  none
attr source  dropPk
attr title  "packets dropped, count"
scalar scenarioPRJP1.node[73].app 	dropPk:sum(packetBytes) 	0
attr interpolationmode  none
attr source  dropPk
attr title  "packets dropped, sum(packetBytes)"
scalar scenarioPRJP1.node[73].app 	outOfOrderPk:count 	0
attr interpolationmode  none
attr source  outOfOrderPk
attr title  "packets received out of order, count"
scalar scenarioPRJP1.node[73].app 	outOfOrderPk:sum(packetBytes) 	0
attr interpolationmode  none
attr source  outOfOrderPk
attr title  "packets received out of order, sum(packetBytes)"
scalar scenarioPRJP1.node[73].app 	rcvdPk:count 	193
attr interpolationmode  none
attr source  rcvdPk
attr title  "packets received, count"
scalar scenarioPRJP1.node[73].app 	rcvdPk:sum(packetBytes) 	98816
attr interpolationmode  none
attr source  rcvdPk
attr title  "packets received, sum(packetBytes)"
statistic scenarioPRJP1.node[73].app 	endToEndDelay:histogram
field count 193
field mean 0.040959490876383
field stddev 0.21816471023446
field sum 7.905181739142
field sqrsum 9.4621936513241
field min 0.000945011008
field max 2.50361043043
attr interpolationmode  none
attr source  messageAge(rcvdPk)
attr title  "delay, histogram"
attr unit  s
bin	-INF	0
bin	-0.5041967043905	0
bin	-0.4368444756707	0
bin	-0.3694922469509	0
bin	-0.3021400182311	0
bin	-0.2347877895113	0
bin	-0.1674355607915	0
bin	-0.1000833320717	0
bin	-0.0327311033519	178
bin	0.0346211253679	8
bin	0.1019733540877	0
bin	0.1693255828075	0
bin	0.2366778115273	2
bin	0.3040300402471	0
bin	0.3713822689669	0
bin	0.4387344976867	0
bin	0.5060867264065	1
bin	0.5734389551263	0
bin	0.6407911838461	0
bin	0.7081434125659	1
bin	0.7754956412857	0
bin	0.8428478700055	0
bin	0.9102000987253	0
bin	0.9775523274451	2
bin	1.0449045561649	0
bin	1.1122567848847	0
bin	1.1796090136045	0
bin	1.2469612423243	0
bin	1.3143134710441	0
bin	1.3816656997639	0
bin	1.4490179284837	0
bin	1.5163701572035	1
scalar scenarioPRJP1.node[73].app 	sentPk:count 	2609
attr interpolationmode  none
attr source  sentPk
attr title  "packets sent, count"
scalar scenarioPRJP1.node[73].app 	sentPk:sum(packetBytes) 	1335808
attr interpolationmode  none
attr source  sentPk
attr title  "packets sent, sum(packetBytes)"
scalar scenarioPRJP1.node[73].udp 	droppedPkBadChecksum:count 	0
attr interpolationmode  none
attr title  "packets dropped (checksum error), count"
scalar scenarioPRJP1.node[73].udp 	droppedPkWrongPort:count 	0
attr interpolationmode  none
attr title  "packets dropped (wrong port), count"
scalar scenarioPRJP1.node[73].udp 	passedUpPk:count 	193
attr interpolationmode  none
attr title  "packets passed up, count"
scalar scenarioPRJP1.node[73].udp 	rcvdPk:count 	193
attr interpolationmode  none
attr source  rcvdPk
attr title  "packets received, count"
scalar scenarioPRJP1.node[73].udp 	rcvdPk:sum(packetBytes) 	100360
attr interpolationmode  none
attr source  rcvdPk
attr title  "packets received, sum(packetBytes)"
scalar scenarioPRJP1.node[73].udp 	sentPk:count 	2609
attr interpolationmode  none
attr source  sentPk
attr title  "packets sent, count"
scalar scenarioPRJP1.node[73].udp 	sentPk:sum(packetBytes) 	1356680
attr interpolationmode  none
attr source  sentPk
attr title  "packets sent, sum(packetBytes)"
scalar scenarioPRJP1.node[73].networkLayer.arp 	failedARPResolution:count 	2
attr title  "ARP failed resolutions, count"
scalar scenarioPRJP1.node[73].networkLayer.arp 	completedARPResolution:count 	340
attr title  "ARP completed resolutions, count"
scalar scenarioPRJP1.node[73].networkLayer.arp 	initiatedARPResolution:count 	55
attr title  "ARP initiated resolutions, count"
scalar scenarioPRJP1.node[73].networkLayer.arp 	sentReply:count 	43
attr title  "ARP replies sent, count"
scalar scenarioPRJP1.node[73].networkLayer.arp 	sentReq:count 	68
attr title  "ARP request sent, count"
scalar scenarioPRJP1.node[73].mobility 	startTime 	7.3
scalar scenarioPRJP1.node[73].mobility 	totalTime 	942.7
scalar scenarioPRJP1.node[73].mobility 	stopTime 	950
scalar scenarioPRJP1.node[73].mobility 	minSpeed 	2.4757628343875e-13
scalar scenarioPRJP1.node[73].mobility 	maxSpeed 	21.114371487478
scalar scenarioPRJP1.node[73].mobility 	totalDistance 	9343.6628742843
scalar scenarioPRJP1.node[73].mobility 	totalCO2Emission 	2774.4954767942
scalar scenarioPRJP1.node[73].wlan.mgmt 	dataQueueLen:max 	0
attr interpolationmode  sample-hold
attr title  "data queue length, max"
scalar scenarioPRJP1.node[73].wlan.mgmt 	dataQueueLen:timeavg 	0
attr interpolationmode  sample-hold
attr title  "data queue length, timeavg"
scalar scenarioPRJP1.node[73].wlan.mgmt 	dropPkByQueue:count 	0
attr interpolationmode  none
attr source  dropPkByQueue
attr title  "packets dropped by queue, count"
scalar scenarioPRJP1.node[73].wlan.mgmt 	dropPkByQueue:sum(packetBytes) 	0
attr interpolationmode  none
attr source  dropPkByQueue
attr title  "packets dropped by queue, sum(packetBytes)"
scalar scenarioPRJP1.node[73].wlan.mac 	"number of received packets" 	1193
scalar scenarioPRJP1.node[73].wlan.mac 	"number of collisions" 	3427
scalar scenarioPRJP1.node[73].wlan.mac 	"number of internal collisions" 	0
scalar scenarioPRJP1.node[73].wlan.mac 	"number of retry for AC 0" 	1960
scalar scenarioPRJP1.node[73].wlan.mac 	"number of retry for AC 1" 	12
scalar scenarioPRJP1.node[73].wlan.mac 	"number of retry for AC 2" 	0
scalar scenarioPRJP1.node[73].wlan.mac 	"number of retry for AC 3" 	0
scalar scenarioPRJP1.node[73].wlan.mac 	"sent and received bits" 	23121024
scalar scenarioPRJP1.node[73].wlan.mac 	"sent packet within AC 0" 	506
scalar scenarioPRJP1.node[73].wlan.mac 	"sent packet within AC 1" 	22
scalar scenarioPRJP1.node[73].wlan.mac 	"sent packet within AC 2" 	0
scalar scenarioPRJP1.node[73].wlan.mac 	"sent packet within AC 3" 	0
scalar scenarioPRJP1.node[73].wlan.mac 	"sent in TXOP " 	0
scalar scenarioPRJP1.node[73].wlan.mac 	"sentWithoutRetry AC 0" 	476
scalar scenarioPRJP1.node[73].wlan.mac 	"sentWithoutRetry AC 1" 	22
scalar scenarioPRJP1.node[73].wlan.mac 	"sentWithoutRetry AC 2" 	0
scalar scenarioPRJP1.node[73].wlan.mac 	"sentWithoutRetry AC 3" 	0
scalar scenarioPRJP1.node[73].wlan.mac 	"numGivenUp AC 0" 	315
scalar scenarioPRJP1.node[73].wlan.mac 	"numGivenUp AC 1" 	2
scalar scenarioPRJP1.node[73].wlan.mac 	"numGivenUp AC 2" 	0
scalar scenarioPRJP1.node[73].wlan.mac 	"numGivenUp AC 3" 	0
scalar scenarioPRJP1.node[73].wlan.mac 	"numDropped AC 0" 	0
scalar scenarioPRJP1.node[73].wlan.mac 	"numDropped AC 1" 	0
scalar scenarioPRJP1.node[73].wlan.mac 	"numDropped AC 2" 	0
scalar scenarioPRJP1.node[73].wlan.mac 	"numDropped AC 3" 	0
scalar scenarioPRJP1.node[73].wlan.mac 	rcvdPkFromLL:count 	34572
attr interpolationmode  none
attr source  packetReceivedFromLower
attr title  "packets received from lower layer, count"
scalar scenarioPRJP1.node[73].wlan.mac 	rcvdPkFromLL:sum(packetBytes) 	20577682
attr interpolationmode  none
attr source  packetReceivedFromLower
attr title  "packets received from lower layer, sum(packetBytes)"
scalar scenarioPRJP1.node[73].wlan.mac 	sentDownPk:count 	6544
attr interpolationmode  none
attr source  packetSentToLower
attr title  "packets sent to lower layer, count"
scalar scenarioPRJP1.node[73].wlan.mac 	sentDownPk:sum(packetBytes) 	4136086
attr interpolationmode  none
attr source  packetSentToLower
attr title  "packets sent to lower layer, sum(packetBytes)"
scalar scenarioPRJP1.node[73].wlan.mac 	rcvdPkFromHL:count 	3379
attr interpolationmode  none
attr source  packetReceivedFromUpper
attr title  "packets received from higher layer, count"
scalar scenarioPRJP1.node[73].wlan.mac 	rcvdPkFromHL:sum(packetBytes) 	3059976
attr interpolationmode  none
attr source  packetReceivedFromUpper
attr title  "packets received from higher layer, sum(packetBytes)"
scalar scenarioPRJP1.node[73].wlan.mac 	passedUpPk:count 	12270
attr interpolationmode  none
attr source  packetSentToUpper
attr title  "packets passed to higher layer, count"
scalar scenarioPRJP1.node[73].wlan.mac 	passedUpPk:sum(packetBytes) 	12236996
attr interpolationmode  none
attr source  packetSentToUpper
attr title  "packets passed to higher layer, sum(packetBytes)"
statistic scenarioPRJP1.node[73].wlan.radio 	radioChannel:histogram
field count 1
field mean 3
field stddev -nan
field sum 3
field sqrsum 9
field min 3
field max 3
attr interpolationmode  sample-hold
attr source  radioChannelChanged
attr title  "Radio channel, histogram"
bin	-INF	0
bin	2	0
bin	3	1
bin	4	0
scalar scenarioPRJP1.node[73].wlan.radio 	transmissionState:count 	26176
attr interpolationmode  sample-hold
attr source  transmissionStateChanged
attr title  "Radio transmission state, count"
scalar scenarioPRJP1.node[73].wlan.radio 	receptionState:count 	82552
attr interpolationmode  sample-hold
attr source  receptionStateChanged
attr title  "Radio reception state, count"
scalar scenarioPRJP1.node[73].wlan.radio 	radioMode:count 	13090
attr interpolationmode  sample-hold
attr source  radioModeChanged
attr title  "Radio mode, count"
statistic scenarioPRJP1.node[73].wlan.radio 	symbolErrorRate:histogram
field count 0
field mean -nan
field stddev -nan
field sum 0
field sqrsum 0
field min -nan
field max -nan
attr source  symbolErrorRate
attr title  "Symbol error rate, histogram"
bin	-INF	0
bin	-0.5	0
bin	-0.46666666666667	0
bin	-0.43333333333333	0
bin	-0.4	0
bin	-0.36666666666667	0
bin	-0.33333333333333	0
bin	-0.3	0
bin	-0.26666666666667	0
bin	-0.23333333333333	0
bin	-0.2	0
bin	-0.16666666666667	0
bin	-0.13333333333333	0
bin	-0.1	0
bin	-0.066666666666667	0
bin	-0.033333333333333	0
bin	0	0
bin	0.033333333333333	0
bin	0.066666666666667	0
bin	0.1	0
bin	0.13333333333333	0
bin	0.16666666666667	0
bin	0.2	0
bin	0.23333333333333	0
bin	0.26666666666667	0
bin	0.3	0
bin	0.33333333333333	0
bin	0.36666666666667	0
bin	0.4	0
bin	0.43333333333333	0
bin	0.46666666666667	0
bin	0.5	0
statistic scenarioPRJP1.node[73].wlan.radio 	bitErrorRate:histogram
field count 0
field mean -nan
field stddev -nan
field sum 0
field sqrsum 0
field min -nan
field max -nan
attr source  bitErrorRate
attr title  "Bit error rate, histogram"
bin	-INF	0
bin	-0.5	0
bin	-0.46666666666667	0
bin	-0.43333333333333	0
bin	-0.4	0
bin	-0.36666666666667	0
bin	-0.33333333333333	0
bin	-0.3	0
bin	-0.26666666666667	0
bin	-0.23333333333333	0
bin	-0.2	0
bin	-0.16666666666667	0
bin	-0.13333333333333	0
bin	-0.1	0
bin	-0.066666666666667	0
bin	-0.033333333333333	0
bin	0	0
bin	0.033333333333333	0
bin	0.066666666666667	0
bin	0.1	0
bin	0.13333333333333	0
bin	0.16666666666667	0
bin	0.2	0
bin	0.23333333333333	0
bin	0.26666666666667	0
bin	0.3	0
bin	0.33333333333333	0
bin	0.36666666666667	0
bin	0.4	0
bin	0.43333333333333	0
bin	0.46666666666667	0
bin	0.5	0
statistic scenarioPRJP1.node[73].wlan.radio 	packetErrorRate:histogram
field count 34572
field mean 0.093317096531113
field stddev 0.28323792800689
field sum 3226.1586612736
field sqrsum 3074.4701168393
field min 0
field max 1
attr source  packetErrorRate
attr title  "Packet error rate, histogram"
bin	-INF	4115
bin	-3.6959768578981e-11	0
bin	-3.2031799435117e-11	0
bin	-2.7103830291253e-11	0
bin	-2.2175861147389e-11	0
bin	-1.7247892003525e-11	0
bin	-1.231992285966e-11	0
bin	-7.3919537157963e-12	0
bin	-2.4639845719321e-12	26606
bin	2.4639845719321e-12	133
bin	7.3919537157963e-12	68
bin	1.231992285966e-11	46
bin	1.7247892003525e-11	30
bin	2.2175861147389e-11	27
bin	2.7103830291253e-11	23
bin	3.2031799435117e-11	27
bin	3.6959768578981e-11	17
bin	4.1887737722845e-11	16
bin	4.681570686671e-11	7
bin	5.1743676010574e-11	6
bin	5.6671645154438e-11	17
bin	6.1599614298302e-11	10
bin	6.6527583442166e-11	8
bin	7.1455552586031e-11	14
bin	7.6383521729895e-11	6
bin	8.1311490873759e-11	9
bin	8.6239460017623e-11	3
bin	9.1167429161487e-11	5
bin	9.6095398305351e-11	6
bin	1.0102336744922e-10	5
bin	1.0595133659308e-10	5
bin	1.1087930573694e-10	3363
statistic scenarioPRJP1.node[73].wlan.radio 	minSNIR:histogram
field count 34572
field mean 16040.967765918
field stddev 87200.986894406
field sum 554568337.60331
field sqrsum 2.7177411566755e+14
field min 0.00041049121942784
field max 1111378.3547674
attr source  minSNIR
attr title  "Min SNIR, histogram"
bin	-INF	0
bin	-19426.955208968	0
bin	-16835.868434352	0
bin	-14244.781659736	0
bin	-11653.69488512	0
bin	-9062.6081105035	0
bin	-6471.5213358874	0
bin	-3880.4345612714	0
bin	-1289.3477866554	27260
bin	1301.7389879607	2073
bin	3892.8257625767	785
bin	6483.9125371928	446
bin	9074.9993118088	427
bin	11666.086086425	374
bin	14257.172861041	332
bin	16848.259635657	212
bin	19439.346410273	213
bin	22030.433184889	212
bin	24621.519959505	114
bin	27212.606734121	63
bin	29803.693508737	127
bin	32394.780283353	72
bin	34985.867057969	39
bin	37576.953832585	53
bin	40168.040607201	46
bin	42759.127381817	34
bin	45350.214156433	27
bin	47941.300931049	32
bin	50532.387705666	25
bin	53123.474480282	47
bin	55714.561254898	36
bin	58305.648029514	1523
scalar scenarioPRJP1.node[73].lo0.lo 	droppedPkBitError:count 	0
attr interpolationmode  none
attr source  dropPkBitError
attr title  "packets dropped/bit error, count"
scalar scenarioPRJP1.node[73].lo0.lo 	droppedPkBitError:sum(packetBytes) 	0
attr interpolationmode  none
attr source  dropPkBitError
attr title  "packets dropped/bit error, sum(packetBytes)"
scalar scenarioPRJP1.node[73].lo0.lo 	rcvdPkFromHL:count 	4
attr interpolationmode  none
attr source  packetReceivedFromUpper
attr title  "packets received from higher layer, count"
scalar scenarioPRJP1.node[73].lo0.lo 	rcvdPkFromHL:sum(packetBytes) 	224
attr interpolationmode  none
attr source  packetReceivedFromUpper
attr title  "packets received from higher layer, sum(packetBytes)"
scalar scenarioPRJP1.node[73].lo0.lo 	passedUpPk:count 	4
attr interpolationmode  none
attr source  packetSentToUpper
attr title  "packets passed to higher layer, count"
scalar scenarioPRJP1.node[73].lo0.lo 	passedUpPk:sum(packetBytes) 	224
attr interpolationmode  none
attr source  packetSentToUpper
attr title  "packets passed to higher layer, sum(packetBytes)"
