version 2
run OLSR-ETX-TRG-75n-16-20150805-12:25:19-16219
attr configname OLSR-ETX-TRG-75n
attr datetime 20150805-12:25:19
attr experiment OLSR-ETX-TRG-75n
attr inifile omnetpp.ini
attr iterationvars ""
attr iterationvars2 $repetition=16
attr measurement ""
attr network Prj_Part1_propag.scenarioPRJP1
attr processid 16219
attr repetition 16
attr replication #16
attr resultdir results
attr runnumber 16
attr seedset 16

scalar scenarioPRJP1.radioMedium.propagation 	"Arrival computation count" 	38896154
scalar scenarioPRJP1.radioMedium 	"transmission count" 	525722
scalar scenarioPRJP1.radioMedium 	"radio frame send count" 	38896132
scalar scenarioPRJP1.radioMedium 	"reception computation count" 	38638415
scalar scenarioPRJP1.radioMedium 	"interference computation count" 	107818492
scalar scenarioPRJP1.radioMedium 	"reception decision computation count" 	2762269
scalar scenarioPRJP1.radioMedium 	"listening decision computation count" 	66922915
scalar scenarioPRJP1.radioMedium 	"reception cache hit" 	85.22155952035
attr unit  %
scalar scenarioPRJP1.radioMedium 	"interference cache hit" 	50
attr unit  %
scalar scenarioPRJP1.radioMedium 	"noise cache hit" 	0
attr unit  %
scalar scenarioPRJP1.radioMedium 	"snir cache hit" 	0
attr unit  %
scalar scenarioPRJP1.radioMedium 	"reception decision cache hit" 	0
attr unit  %
scalar scenarioPRJP1.node[0].app 	"Total sent" 	2592
scalar scenarioPRJP1.node[0].app 	"Total received" 	168
scalar scenarioPRJP1.node[0].app 	"Total deleted" 	0
scalar scenarioPRJP1.node[0].app 	dropPk:count 	0
attr interpolationmode  none
attr source  dropPk
attr title  "packets dropped, count"
scalar scenarioPRJP1.node[0].app 	dropPk:sum(packetBytes) 	0
attr interpolationmode  none
attr source  dropPk
attr title  "packets dropped, sum(packetBytes)"
scalar scenarioPRJP1.node[0].app 	outOfOrderPk:count 	0
attr interpolationmode  none
attr source  outOfOrderPk
attr title  "packets received out of order, count"
scalar scenarioPRJP1.node[0].app 	outOfOrderPk:sum(packetBytes) 	0
attr interpolationmode  none
attr source  outOfOrderPk
attr title  "packets received out of order, sum(packetBytes)"
scalar scenarioPRJP1.node[0].app 	rcvdPk:count 	168
attr interpolationmode  none
attr source  rcvdPk
attr title  "packets received, count"
scalar scenarioPRJP1.node[0].app 	rcvdPk:sum(packetBytes) 	86016
attr interpolationmode  none
attr source  rcvdPk
attr title  "packets received, sum(packetBytes)"
statistic scenarioPRJP1.node[0].app 	endToEndDelay:histogram
field count 168
field mean 0.030924510366911
field stddev 0.18955128266169
field sum 5.195317741641
field sqrsum 6.1609206800626
field min 0.000945018353
field max 2.007759744115
attr interpolationmode  none
attr source  messageAge(rcvdPk)
attr title  "delay, histogram"
attr unit  s
bin	-INF	0
bin	-0.4997352844925	0
bin	-0.4329779040447	0
bin	-0.3662205235969	0
bin	-0.2994631431491	0
bin	-0.2327057627013	0
bin	-0.1659483822535	0
bin	-0.0991910018057	0
bin	-0.0324336213579	160
bin	0.0343237590899	3
bin	0.1010811395377	1
bin	0.1678385199855	0
bin	0.2345959004333	1
bin	0.3013532808811	0
bin	0.3681106613289	0
bin	0.4348680417767	0
bin	0.5016254222245	0
bin	0.5683828026723	0
bin	0.6351401831201	0
bin	0.7018975635679	0
bin	0.7686549440157	0
bin	0.8354123244635	0
bin	0.9021697049113	0
bin	0.9689270853591	2
bin	1.0356844658069	0
bin	1.1024418462547	0
bin	1.1691992267025	0
bin	1.2359566071503	0
bin	1.3027139875981	0
bin	1.3694713680459	0
bin	1.4362287484937	0
bin	1.5029861289415	1
scalar scenarioPRJP1.node[0].app 	sentPk:count 	2592
attr interpolationmode  none
attr source  sentPk
attr title  "packets sent, count"
scalar scenarioPRJP1.node[0].app 	sentPk:sum(packetBytes) 	1327104
attr interpolationmode  none
attr source  sentPk
attr title  "packets sent, sum(packetBytes)"
scalar scenarioPRJP1.node[0].udp 	droppedPkBadChecksum:count 	0
attr interpolationmode  none
attr title  "packets dropped (checksum error), count"
scalar scenarioPRJP1.node[0].udp 	droppedPkWrongPort:count 	0
attr interpolationmode  none
attr title  "packets dropped (wrong port), count"
scalar scenarioPRJP1.node[0].udp 	passedUpPk:count 	168
attr interpolationmode  none
attr title  "packets passed up, count"
scalar scenarioPRJP1.node[0].udp 	rcvdPk:count 	168
attr interpolationmode  none
attr source  rcvdPk
attr title  "packets received, count"
scalar scenarioPRJP1.node[0].udp 	rcvdPk:sum(packetBytes) 	87360
attr interpolationmode  none
attr source  rcvdPk
attr title  "packets received, sum(packetBytes)"
scalar scenarioPRJP1.node[0].udp 	sentPk:count 	2592
attr interpolationmode  none
attr source  sentPk
attr title  "packets sent, count"
scalar scenarioPRJP1.node[0].udp 	sentPk:sum(packetBytes) 	1347840
attr interpolationmode  none
attr source  sentPk
attr title  "packets sent, sum(packetBytes)"
scalar scenarioPRJP1.node[0].networkLayer.arp 	failedARPResolution:count 	4
attr title  "ARP failed resolutions, count"
scalar scenarioPRJP1.node[0].networkLayer.arp 	completedARPResolution:count 	245
attr title  "ARP completed resolutions, count"
scalar scenarioPRJP1.node[0].networkLayer.arp 	initiatedARPResolution:count 	56
attr title  "ARP initiated resolutions, count"
scalar scenarioPRJP1.node[0].networkLayer.arp 	sentReply:count 	38
attr title  "ARP replies sent, count"
scalar scenarioPRJP1.node[0].networkLayer.arp 	sentReq:count 	77
attr title  "ARP request sent, count"
scalar scenarioPRJP1.node[0].mobility 	startTime 	0.1
scalar scenarioPRJP1.node[0].mobility 	totalTime 	949.9
scalar scenarioPRJP1.node[0].mobility 	stopTime 	950
scalar scenarioPRJP1.node[0].mobility 	minSpeed 	2.4755202414613e-13
scalar scenarioPRJP1.node[0].mobility 	maxSpeed 	17.465244035963
scalar scenarioPRJP1.node[0].mobility 	totalDistance 	8128.9397998014
scalar scenarioPRJP1.node[0].mobility 	totalCO2Emission 	2503.7482239047
scalar scenarioPRJP1.node[0].wlan.mgmt 	dataQueueLen:max 	0
attr interpolationmode  sample-hold
attr title  "data queue length, max"
scalar scenarioPRJP1.node[0].wlan.mgmt 	dataQueueLen:timeavg 	0
attr interpolationmode  sample-hold
attr title  "data queue length, timeavg"
scalar scenarioPRJP1.node[0].wlan.mgmt 	dropPkByQueue:count 	0
attr interpolationmode  none
attr source  dropPkByQueue
attr title  "packets dropped by queue, count"
scalar scenarioPRJP1.node[0].wlan.mgmt 	dropPkByQueue:sum(packetBytes) 	0
attr interpolationmode  none
attr source  dropPkByQueue
attr title  "packets dropped by queue, sum(packetBytes)"
scalar scenarioPRJP1.node[0].wlan.mac 	"number of received packets" 	1125
scalar scenarioPRJP1.node[0].wlan.mac 	"number of collisions" 	2331
scalar scenarioPRJP1.node[0].wlan.mac 	"number of internal collisions" 	0
scalar scenarioPRJP1.node[0].wlan.mac 	"number of retry for AC 0" 	1498
scalar scenarioPRJP1.node[0].wlan.mac 	"number of retry for AC 1" 	4
scalar scenarioPRJP1.node[0].wlan.mac 	"number of retry for AC 2" 	0
scalar scenarioPRJP1.node[0].wlan.mac 	"number of retry for AC 3" 	0
scalar scenarioPRJP1.node[0].wlan.mac 	"sent and received bits" 	22778144
scalar scenarioPRJP1.node[0].wlan.mac 	"sent packet within AC 0" 	476
scalar scenarioPRJP1.node[0].wlan.mac 	"sent packet within AC 1" 	34
scalar scenarioPRJP1.node[0].wlan.mac 	"sent packet within AC 2" 	0
scalar scenarioPRJP1.node[0].wlan.mac 	"sent packet within AC 3" 	0
scalar scenarioPRJP1.node[0].wlan.mac 	"sent in TXOP " 	0
scalar scenarioPRJP1.node[0].wlan.mac 	"sentWithoutRetry AC 0" 	459
scalar scenarioPRJP1.node[0].wlan.mac 	"sentWithoutRetry AC 1" 	33
scalar scenarioPRJP1.node[0].wlan.mac 	"sentWithoutRetry AC 2" 	0
scalar scenarioPRJP1.node[0].wlan.mac 	"sentWithoutRetry AC 3" 	0
scalar scenarioPRJP1.node[0].wlan.mac 	"numGivenUp AC 0" 	243
scalar scenarioPRJP1.node[0].wlan.mac 	"numGivenUp AC 1" 	0
scalar scenarioPRJP1.node[0].wlan.mac 	"numGivenUp AC 2" 	0
scalar scenarioPRJP1.node[0].wlan.mac 	"numGivenUp AC 3" 	0
scalar scenarioPRJP1.node[0].wlan.mac 	"numDropped AC 0" 	0
scalar scenarioPRJP1.node[0].wlan.mac 	"numDropped AC 1" 	0
scalar scenarioPRJP1.node[0].wlan.mac 	"numDropped AC 2" 	0
scalar scenarioPRJP1.node[0].wlan.mac 	"numDropped AC 3" 	0
scalar scenarioPRJP1.node[0].wlan.mac 	rcvdPkFromLL:count 	27501
attr interpolationmode  none
attr source  packetReceivedFromLower
attr title  "packets received from lower layer, count"
scalar scenarioPRJP1.node[0].wlan.mac 	rcvdPkFromLL:sum(packetBytes) 	16577576
attr interpolationmode  none
attr source  packetReceivedFromLower
attr title  "packets received from lower layer, sum(packetBytes)"
scalar scenarioPRJP1.node[0].wlan.mac 	sentDownPk:count 	5888
attr interpolationmode  none
attr source  packetSentToLower
attr title  "packets sent to lower layer, count"
scalar scenarioPRJP1.node[0].wlan.mac 	sentDownPk:sum(packetBytes) 	3780186
attr interpolationmode  none
attr source  packetSentToLower
attr title  "packets sent to lower layer, sum(packetBytes)"
scalar scenarioPRJP1.node[0].wlan.mac 	rcvdPkFromHL:count 	3261
attr interpolationmode  none
attr source  packetReceivedFromUpper
attr title  "packets received from higher layer, count"
scalar scenarioPRJP1.node[0].wlan.mac 	rcvdPkFromHL:sum(packetBytes) 	2974948
attr interpolationmode  none
attr source  packetReceivedFromUpper
attr title  "packets received from higher layer, sum(packetBytes)"
scalar scenarioPRJP1.node[0].wlan.mac 	passedUpPk:count 	10437
attr interpolationmode  none
attr source  packetSentToUpper
attr title  "packets passed to higher layer, count"
scalar scenarioPRJP1.node[0].wlan.mac 	passedUpPk:sum(packetBytes) 	10425416
attr interpolationmode  none
attr source  packetSentToUpper
attr title  "packets passed to higher layer, sum(packetBytes)"
statistic scenarioPRJP1.node[0].wlan.radio 	radioChannel:histogram
field count 1
field mean 3
field stddev nan
field sum 3
field sqrsum 9
field min 3
field max 3
attr interpolationmode  sample-hold
attr source  radioChannelChanged
attr title  "Radio channel, histogram"
bin	-INF	0
bin	2	0
bin	3	1
bin	4	0
scalar scenarioPRJP1.node[0].wlan.radio 	transmissionState:count 	23552
attr interpolationmode  sample-hold
attr source  transmissionStateChanged
attr title  "Radio transmission state, count"
scalar scenarioPRJP1.node[0].wlan.radio 	receptionState:count 	66942
attr interpolationmode  sample-hold
attr source  receptionStateChanged
attr title  "Radio reception state, count"
scalar scenarioPRJP1.node[0].wlan.radio 	radioMode:count 	11778
attr interpolationmode  sample-hold
attr source  radioModeChanged
attr title  "Radio mode, count"
statistic scenarioPRJP1.node[0].wlan.radio 	symbolErrorRate:histogram
field count 0
field mean nan
field stddev nan
field sum 0
field sqrsum 0
field min nan
field max nan
attr source  symbolErrorRate
attr title  "Symbol error rate, histogram"
bin	-INF	0
bin	-0.5	0
bin	-0.46666666666667	0
bin	-0.43333333333333	0
bin	-0.4	0
bin	-0.36666666666667	0
bin	-0.33333333333333	0
bin	-0.3	0
bin	-0.26666666666667	0
bin	-0.23333333333333	0
bin	-0.2	0
bin	-0.16666666666667	0
bin	-0.13333333333333	0
bin	-0.1	0
bin	-0.066666666666667	0
bin	-0.033333333333333	0
bin	0	0
bin	0.033333333333333	0
bin	0.066666666666667	0
bin	0.1	0
bin	0.13333333333333	0
bin	0.16666666666667	0
bin	0.2	0
bin	0.23333333333333	0
bin	0.26666666666667	0
bin	0.3	0
bin	0.33333333333333	0
bin	0.36666666666667	0
bin	0.4	0
bin	0.43333333333333	0
bin	0.46666666666667	0
bin	0.5	0
statistic scenarioPRJP1.node[0].wlan.radio 	bitErrorRate:histogram
field count 0
field mean nan
field stddev nan
field sum 0
field sqrsum 0
field min nan
field max nan
attr source  bitErrorRate
attr title  "Bit error rate, histogram"
bin	-INF	0
bin	-0.5	0
bin	-0.46666666666667	0
bin	-0.43333333333333	0
bin	-0.4	0
bin	-0.36666666666667	0
bin	-0.33333333333333	0
bin	-0.3	0
bin	-0.26666666666667	0
bin	-0.23333333333333	0
bin	-0.2	0
bin	-0.16666666666667	0
bin	-0.13333333333333	0
bin	-0.1	0
bin	-0.066666666666667	0
bin	-0.033333333333333	0
bin	0	0
bin	0.033333333333333	0
bin	0.066666666666667	0
bin	0.1	0
bin	0.13333333333333	0
bin	0.16666666666667	0
bin	0.2	0
bin	0.23333333333333	0
bin	0.26666666666667	0
bin	0.3	0
bin	0.33333333333333	0
bin	0.36666666666667	0
bin	0.4	0
bin	0.43333333333333	0
bin	0.46666666666667	0
bin	0.5	0
statistic scenarioPRJP1.node[0].wlan.radio 	packetErrorRate:histogram
field count 27501
field mean 0.080076149524297
field stddev 0.26349656534249
field sum 2202.1741880677
field sqrsum 2085.6787281127
field min 0
field max 1
attr source  packetErrorRate
attr title  "Packet error rate, histogram"
bin	-INF	0
bin	-0.5	0
bin	-0.46666666666667	0
bin	-0.43333333333333	0
bin	-0.4	0
bin	-0.36666666666667	0
bin	-0.33333333333333	0
bin	-0.3	0
bin	-0.26666666666667	0
bin	-0.23333333333333	0
bin	-0.2	0
bin	-0.16666666666667	0
bin	-0.13333333333333	0
bin	-0.1	0
bin	-0.066666666666667	0
bin	-0.033333333333333	0
bin	0	24808
bin	0.033333333333333	130
bin	0.066666666666667	80
bin	0.1	64
bin	0.13333333333333	38
bin	0.16666666666667	29
bin	0.2	24
bin	0.23333333333333	26
bin	0.26666666666667	22
bin	0.3	19
bin	0.33333333333333	24
bin	0.36666666666667	25
bin	0.4	11
bin	0.43333333333333	13
bin	0.46666666666667	16
bin	0.5	2172
statistic scenarioPRJP1.node[0].wlan.radio 	minSNIR:histogram
field count 27501
field mean 10676.312762927
field stddev 64906.260765448
field sum 293609277.29325
field sqrsum 1.1898728835467e+14
field min 0.0016994756312698
field max 753239.71923443
attr source  minSNIR
attr title  "Min SNIR, histogram"
bin	-INF	0
bin	-7410.047003276	0
bin	-6420.3017503254	0
bin	-5430.5564973748	0
bin	-4440.8112444242	0
bin	-3451.0659914735	0
bin	-2461.3207385229	0
bin	-1471.5754855723	0
bin	-481.83023262164	19650
bin	507.91502032898	2169
bin	1497.6602732796	992
bin	2487.4055262302	511
bin	3477.1507791809	337
bin	4466.8960321315	252
bin	5456.6412850821	209
bin	6446.3865380328	131
bin	7436.1317909834	136
bin	8425.877043934	121
bin	9415.6222968846	166
bin	10405.367549835	116
bin	11395.112802786	154
bin	12384.858055737	101
bin	13374.603308687	155
bin	14364.348561638	192
bin	15354.093814588	56
bin	16343.839067539	73
bin	17333.58432049	72
bin	18323.32957344	284
bin	19313.074826391	60
bin	20302.820079342	37
bin	21292.565332292	121
bin	22282.310585243	1406
scalar scenarioPRJP1.node[0].lo0.lo 	droppedPkBitError:count 	0
attr interpolationmode  none
attr source  dropPkBitError
attr title  "packets dropped/bit error, count"
scalar scenarioPRJP1.node[0].lo0.lo 	droppedPkBitError:sum(packetBytes) 	0
attr interpolationmode  none
attr source  dropPkBitError
attr title  "packets dropped/bit error, sum(packetBytes)"
scalar scenarioPRJP1.node[0].lo0.lo 	rcvdPkFromHL:count 	4
attr interpolationmode  none
attr source  packetReceivedFromUpper
attr title  "packets received from higher layer, count"
scalar scenarioPRJP1.node[0].lo0.lo 	rcvdPkFromHL:sum(packetBytes) 	224
attr interpolationmode  none
attr source  packetReceivedFromUpper
attr title  "packets received from higher layer, sum(packetBytes)"
scalar scenarioPRJP1.node[0].lo0.lo 	passedUpPk:count 	4
attr interpolationmode  none
attr source  packetSentToUpper
attr title  "packets passed to higher layer, count"
scalar scenarioPRJP1.node[0].lo0.lo 	passedUpPk:sum(packetBytes) 	224
attr interpolationmode  none
attr source  packetSentToUpper
attr title  "packets passed to higher layer, sum(packetBytes)"
scalar scenarioPRJP1.node[20].app 	"Total sent" 	2614
scalar scenarioPRJP1.node[20].app 	"Total received" 	204
scalar scenarioPRJP1.node[20].app 	"Total deleted" 	0
scalar scenarioPRJP1.node[20].app 	dropPk:count 	0
attr interpolationmode  none
attr source  dropPk
attr title  "packets dropped, count"
scalar scenarioPRJP1.node[20].app 	dropPk:sum(packetBytes) 	0
attr interpolationmode  none
attr source  dropPk
attr title  "packets dropped, sum(packetBytes)"
scalar scenarioPRJP1.node[20].app 	outOfOrderPk:count 	0
attr interpolationmode  none
attr source  outOfOrderPk
attr title  "packets received out of order, count"
scalar scenarioPRJP1.node[20].app 	outOfOrderPk:sum(packetBytes) 	0
attr interpolationmode  none
attr source  outOfOrderPk
attr title  "packets received out of order, sum(packetBytes)"
scalar scenarioPRJP1.node[20].app 	rcvdPk:count 	204
attr interpolationmode  none
attr source  rcvdPk
attr title  "packets received, count"
scalar scenarioPRJP1.node[20].app 	rcvdPk:sum(packetBytes) 	104448
attr interpolationmode  none
attr source  rcvdPk
attr title  "packets received, sum(packetBytes)"
statistic scenarioPRJP1.node[20].app 	endToEndDelay:histogram
field count 204
field mean 0.075731294647544
field stddev 0.30231708080172
field sum 15.449184108099
field sqrsum 19.723297034683
field min 0.000945011007
field max 2.003117149988
attr interpolationmode  none
attr source  messageAge(rcvdPk)
attr title  "delay, histogram"
attr unit  s
bin	-INF	0
bin	-0.999639651936	0
bin	-0.8662283635436	0
bin	-0.7328170751512	0
bin	-0.5994057867588	0
bin	-0.4659944983664	0
bin	-0.332583209974	0
bin	-0.1991719215816	0
bin	-0.0657606331892	192
bin	0.0676506552032	1
bin	0.2010619435956	0
bin	0.334473231988	0
bin	0.4678845203804	1
bin	0.6012958087728	0
bin	0.7347070971652	1
bin	0.8681183855576	0
bin	1.00152967395	5
bin	1.1349409623424	1
bin	1.2683522507348	0
bin	1.4017635391272	0
bin	1.5351748275196	0
bin	1.668586115912	0
bin	1.8019974043044	0
bin	1.9354086926968	3
bin	2.0688199810892	0
bin	2.2022312694816	0
bin	2.335642557874	0
bin	2.4690538462664	0
bin	2.6024651346588	0
bin	2.7358764230512	0
bin	2.8692877114436	0
bin	3.002698999836	0
scalar scenarioPRJP1.node[20].app 	sentPk:count 	2614
attr interpolationmode  none
attr source  sentPk
attr title  "packets sent, count"
scalar scenarioPRJP1.node[20].app 	sentPk:sum(packetBytes) 	1338368
attr interpolationmode  none
attr source  sentPk
attr title  "packets sent, sum(packetBytes)"
scalar scenarioPRJP1.node[20].udp 	droppedPkBadChecksum:count 	0
attr interpolationmode  none
attr title  "packets dropped (checksum error), count"
scalar scenarioPRJP1.node[20].udp 	droppedPkWrongPort:count 	0
attr interpolationmode  none
attr title  "packets dropped (wrong port), count"
scalar scenarioPRJP1.node[20].udp 	passedUpPk:count 	204
attr interpolationmode  none
attr title  "packets passed up, count"
scalar scenarioPRJP1.node[20].udp 	rcvdPk:count 	204
attr interpolationmode  none
attr source  rcvdPk
attr title  "packets received, count"
scalar scenarioPRJP1.node[20].udp 	rcvdPk:sum(packetBytes) 	106080
attr interpolationmode  none
attr source  rcvdPk
attr title  "packets received, sum(packetBytes)"
scalar scenarioPRJP1.node[20].udp 	sentPk:count 	2614
attr interpolationmode  none
attr source  sentPk
attr title  "packets sent, count"
scalar scenarioPRJP1.node[20].udp 	sentPk:sum(packetBytes) 	1359280
attr interpolationmode  none
attr source  sentPk
attr title  "packets sent, sum(packetBytes)"
scalar scenarioPRJP1.node[20].networkLayer.arp 	failedARPResolution:count 	11
attr title  "ARP failed resolutions, count"
scalar scenarioPRJP1.node[20].networkLayer.arp 	completedARPResolution:count 	391
attr title  "ARP completed resolutions, count"
scalar scenarioPRJP1.node[20].networkLayer.arp 	initiatedARPResolution:count 	62
attr title  "ARP initiated resolutions, count"
scalar scenarioPRJP1.node[20].networkLayer.arp 	sentReply:count 	52
attr title  "ARP replies sent, count"
scalar scenarioPRJP1.node[20].networkLayer.arp 	sentReq:count 	94
attr title  "ARP request sent, count"
scalar scenarioPRJP1.node[20].mobility 	startTime 	2.5
scalar scenarioPRJP1.node[20].mobility 	totalTime 	947.5
scalar scenarioPRJP1.node[20].mobility 	stopTime 	950
scalar scenarioPRJP1.node[20].mobility 	minSpeed 	2.4754561527743e-13
scalar scenarioPRJP1.node[20].mobility 	maxSpeed 	17.335492986978
scalar scenarioPRJP1.node[20].mobility 	totalDistance 	8408.350377
scalar scenarioPRJP1.node[20].mobility 	totalCO2Emission 	2399.301550168
scalar scenarioPRJP1.node[20].wlan.mgmt 	dataQueueLen:max 	1
attr interpolationmode  sample-hold
attr title  "data queue length, max"
scalar scenarioPRJP1.node[20].wlan.mgmt 	dataQueueLen:timeavg 	0
attr interpolationmode  sample-hold
attr title  "data queue length, timeavg"
scalar scenarioPRJP1.node[20].wlan.mgmt 	dropPkByQueue:count 	0
attr interpolationmode  none
attr source  dropPkByQueue
attr title  "packets dropped by queue, count"
scalar scenarioPRJP1.node[20].wlan.mgmt 	dropPkByQueue:sum(packetBytes) 	0
attr interpolationmode  none
attr source  dropPkByQueue
attr title  "packets dropped by queue, sum(packetBytes)"
scalar scenarioPRJP1.node[20].wlan.mac 	"number of received packets" 	1365
scalar scenarioPRJP1.node[20].wlan.mac 	"number of collisions" 	4192
scalar scenarioPRJP1.node[20].wlan.mac 	"number of internal collisions" 	1
scalar scenarioPRJP1.node[20].wlan.mac 	"number of retry for AC 0" 	2299
scalar scenarioPRJP1.node[20].wlan.mac 	"number of retry for AC 1" 	28
scalar scenarioPRJP1.node[20].wlan.mac 	"number of retry for AC 2" 	0
scalar scenarioPRJP1.node[20].wlan.mac 	"number of retry for AC 3" 	0
scalar scenarioPRJP1.node[20].wlan.mac 	"sent and received bits" 	24638496
scalar scenarioPRJP1.node[20].wlan.mac 	"sent packet within AC 0" 	509
scalar scenarioPRJP1.node[20].wlan.mac 	"sent packet within AC 1" 	50
scalar scenarioPRJP1.node[20].wlan.mac 	"sent packet within AC 2" 	0
scalar scenarioPRJP1.node[20].wlan.mac 	"sent packet within AC 3" 	0
scalar scenarioPRJP1.node[20].wlan.mac 	"sent in TXOP " 	0
scalar scenarioPRJP1.node[20].wlan.mac 	"sentWithoutRetry AC 0" 	472
scalar scenarioPRJP1.node[20].wlan.mac 	"sentWithoutRetry AC 1" 	49
scalar scenarioPRJP1.node[20].wlan.mac 	"sentWithoutRetry AC 2" 	0
scalar scenarioPRJP1.node[20].wlan.mac 	"sentWithoutRetry AC 3" 	0
scalar scenarioPRJP1.node[20].wlan.mac 	"numGivenUp AC 0" 	369
scalar scenarioPRJP1.node[20].wlan.mac 	"numGivenUp AC 1" 	4
scalar scenarioPRJP1.node[20].wlan.mac 	"numGivenUp AC 2" 	0
scalar scenarioPRJP1.node[20].wlan.mac 	"numGivenUp AC 3" 	0
scalar scenarioPRJP1.node[20].wlan.mac 	"numDropped AC 0" 	0
scalar scenarioPRJP1.node[20].wlan.mac 	"numDropped AC 1" 	0
scalar scenarioPRJP1.node[20].wlan.mac 	"numDropped AC 2" 	0
scalar scenarioPRJP1.node[20].wlan.mac 	"numDropped AC 3" 	0
scalar scenarioPRJP1.node[20].wlan.mac 	rcvdPkFromLL:count 	38521
attr interpolationmode  none
attr source  packetReceivedFromLower
attr title  "packets received from lower layer, count"
scalar scenarioPRJP1.node[20].wlan.mac 	rcvdPkFromLL:sum(packetBytes) 	22719904
attr interpolationmode  none
attr source  packetReceivedFromLower
attr title  "packets received from lower layer, sum(packetBytes)"
scalar scenarioPRJP1.node[20].wlan.mac 	sentDownPk:count 	7360
attr interpolationmode  none
attr source  packetSentToLower
attr title  "packets sent to lower layer, count"
scalar scenarioPRJP1.node[20].wlan.mac 	sentDownPk:sum(packetBytes) 	4522346
attr interpolationmode  none
attr source  packetSentToLower
attr title  "packets sent to lower layer, sum(packetBytes)"
scalar scenarioPRJP1.node[20].wlan.mac 	rcvdPkFromHL:count 	3669
attr interpolationmode  none
attr source  packetReceivedFromUpper
attr title  "packets received from higher layer, count"
scalar scenarioPRJP1.node[20].wlan.mac 	rcvdPkFromHL:sum(packetBytes) 	3276340
attr interpolationmode  none
attr source  packetReceivedFromUpper
attr title  "packets received from higher layer, sum(packetBytes)"
scalar scenarioPRJP1.node[20].wlan.mac 	passedUpPk:count 	13658
attr interpolationmode  none
attr source  packetSentToUpper
attr title  "packets passed to higher layer, count"
scalar scenarioPRJP1.node[20].wlan.mac 	passedUpPk:sum(packetBytes) 	13604656
attr interpolationmode  none
attr source  packetSentToUpper
attr title  "packets passed to higher layer, sum(packetBytes)"
statistic scenarioPRJP1.node[20].wlan.radio 	radioChannel:histogram
field count 1
field mean 3
field stddev nan
field sum 3
field sqrsum 9
field min 3
field max 3
attr interpolationmode  sample-hold
attr source  radioChannelChanged
attr title  "Radio channel, histogram"
bin	-INF	0
bin	2	0
bin	3	1
bin	4	0
scalar scenarioPRJP1.node[20].wlan.radio 	transmissionState:count 	29440
attr interpolationmode  sample-hold
attr source  transmissionStateChanged
attr title  "Radio transmission state, count"
scalar scenarioPRJP1.node[20].wlan.radio 	receptionState:count 	92184
attr interpolationmode  sample-hold
attr source  receptionStateChanged
attr title  "Radio reception state, count"
scalar scenarioPRJP1.node[20].wlan.radio 	radioMode:count 	14722
attr interpolationmode  sample-hold
attr source  radioModeChanged
attr title  "Radio mode, count"
statistic scenarioPRJP1.node[20].wlan.radio 	symbolErrorRate:histogram
field count 0
field mean nan
field stddev nan
field sum 0
field sqrsum 0
field min nan
field max nan
attr source  symbolErrorRate
attr title  "Symbol error rate, histogram"
bin	-INF	0
bin	-0.5	0
bin	-0.46666666666667	0
bin	-0.43333333333333	0
bin	-0.4	0
bin	-0.36666666666667	0
bin	-0.33333333333333	0
bin	-0.3	0
bin	-0.26666666666667	0
bin	-0.23333333333333	0
bin	-0.2	0
bin	-0.16666666666667	0
bin	-0.13333333333333	0
bin	-0.1	0
bin	-0.066666666666667	0
bin	-0.033333333333333	0
bin	0	0
bin	0.033333333333333	0
bin	0.066666666666667	0
bin	0.1	0
bin	0.13333333333333	0
bin	0.16666666666667	0
bin	0.2	0
bin	0.23333333333333	0
bin	0.26666666666667	0
bin	0.3	0
bin	0.33333333333333	0
bin	0.36666666666667	0
bin	0.4	0
bin	0.43333333333333	0
bin	0.46666666666667	0
bin	0.5	0
statistic scenarioPRJP1.node[20].wlan.radio 	bitErrorRate:histogram
field count 0
field mean nan
field stddev nan
field sum 0
field sqrsum 0
field min nan
field max nan
attr source  bitErrorRate
attr title  "Bit error rate, histogram"
bin	-INF	0
bin	-0.5	0
bin	-0.46666666666667	0
bin	-0.43333333333333	0
bin	-0.4	0
bin	-0.36666666666667	0
bin	-0.33333333333333	0
bin	-0.3	0
bin	-0.26666666666667	0
bin	-0.23333333333333	0
bin	-0.2	0
bin	-0.16666666666667	0
bin	-0.13333333333333	0
bin	-0.1	0
bin	-0.066666666666667	0
bin	-0.033333333333333	0
bin	0	0
bin	0.033333333333333	0
bin	0.066666666666667	0
bin	0.1	0
bin	0.13333333333333	0
bin	0.16666666666667	0
bin	0.2	0
bin	0.23333333333333	0
bin	0.26666666666667	0
bin	0.3	0
bin	0.33333333333333	0
bin	0.36666666666667	0
bin	0.4	0
bin	0.43333333333333	0
bin	0.46666666666667	0
bin	0.5	0
statistic scenarioPRJP1.node[20].wlan.radio 	packetErrorRate:histogram
field count 38521
field mean 0.10201622181549
field stddev 0.29521828872524
field sum 3929.7668805545
field sqrsum 3758.0658094473
field min 0
field max 1
attr source  packetErrorRate
attr title  "Packet error rate, histogram"
bin	-INF	0
bin	-1	0
bin	0	35552
bin	1	2969
bin	2	0
statistic scenarioPRJP1.node[20].wlan.radio 	minSNIR:histogram
field count 38521
field mean 5569.6308378999
field stddev 44695.601158454
field sum 214547749.50674
field sqrsum 78146231069364
field min 0.00075902267479246
field max 3878250.8472347
attr source  minSNIR
attr title  "Min SNIR, histogram"
bin	-INF	0
bin	-13619.343622755	0
bin	-11803.426536704	0
bin	-9987.5094506533	0
bin	-8171.5923646025	0
bin	-6355.6752785518	0
bin	-4539.758192501	0
bin	-2723.8411064502	0
bin	-907.92402039946	30937
bin	907.99306565132	2909
bin	2723.9101517021	972
bin	4539.8272377529	500
bin	6355.7443238036	323
bin	8171.6614098544	223
bin	9987.5784959052	316
bin	11803.495581956	256
bin	13619.412668007	155
bin	15435.329754058	131
bin	17251.246840108	107
bin	19067.163926159	214
bin	20883.08101221	74
bin	22698.998098261	67
bin	24514.915184311	61
bin	26330.832270362	53
bin	28146.749356413	27
bin	29962.666442464	49
bin	31778.583528514	48
bin	33594.500614565	26
bin	35410.417700616	42
bin	37226.334786667	28
bin	39042.251872718	42
bin	40858.168958768	961
scalar scenarioPRJP1.node[20].lo0.lo 	droppedPkBitError:count 	0
attr interpolationmode  none
attr source  dropPkBitError
attr title  "packets dropped/bit error, count"
scalar scenarioPRJP1.node[20].lo0.lo 	droppedPkBitError:sum(packetBytes) 	0
attr interpolationmode  none
attr source  dropPkBitError
attr title  "packets dropped/bit error, sum(packetBytes)"
scalar scenarioPRJP1.node[20].lo0.lo 	rcvdPkFromHL:count 	5
attr interpolationmode  none
attr source  packetReceivedFromUpper
attr title  "packets received from higher layer, count"
scalar scenarioPRJP1.node[20].lo0.lo 	rcvdPkFromHL:sum(packetBytes) 	280
attr interpolationmode  none
attr source  packetReceivedFromUpper
attr title  "packets received from higher layer, sum(packetBytes)"
scalar scenarioPRJP1.node[20].lo0.lo 	passedUpPk:count 	5
attr interpolationmode  none
attr source  packetSentToUpper
attr title  "packets passed to higher layer, count"
scalar scenarioPRJP1.node[20].lo0.lo 	passedUpPk:sum(packetBytes) 	280
attr interpolationmode  none
attr source  packetSentToUpper
attr title  "packets passed to higher layer, sum(packetBytes)"
scalar scenarioPRJP1.node[40].app 	"Total sent" 	2610
scalar scenarioPRJP1.node[40].app 	"Total received" 	173
scalar scenarioPRJP1.node[40].app 	"Total deleted" 	0
scalar scenarioPRJP1.node[40].app 	dropPk:count 	0
attr interpolationmode  none
attr source  dropPk
attr title  "packets dropped, count"
scalar scenarioPRJP1.node[40].app 	dropPk:sum(packetBytes) 	0
attr interpolationmode  none
attr source  dropPk
attr title  "packets dropped, sum(packetBytes)"
scalar scenarioPRJP1.node[40].app 	outOfOrderPk:count 	1
attr interpolationmode  none
attr source  outOfOrderPk
attr title  "packets received out of order, count"
scalar scenarioPRJP1.node[40].app 	outOfOrderPk:sum(packetBytes) 	512
attr interpolationmode  none
attr source  outOfOrderPk
attr title  "packets received out of order, sum(packetBytes)"
scalar scenarioPRJP1.node[40].app 	rcvdPk:count 	173
attr interpolationmode  none
attr source  rcvdPk
attr title  "packets received, count"
scalar scenarioPRJP1.node[40].app 	rcvdPk:sum(packetBytes) 	88576
attr interpolationmode  none
attr source  rcvdPk
attr title  "packets received, sum(packetBytes)"
statistic scenarioPRJP1.node[40].app 	endToEndDelay:histogram
field count 173
field mean 0.061623723736913
field stddev 0.27826890113951
field sum 10.660904206486
field sqrsum 13.975540606325
field min 0.000945045371
field max 2.00366724033
attr interpolationmode  none
attr source  messageAge(rcvdPk)
attr title  "delay, histogram"
attr unit  s
bin	-INF	0
bin	-0.999685290014	0
bin	-0.86626790942267	0
bin	-0.73285052883133	0
bin	-0.59943314824	0
bin	-0.46601576764867	0
bin	-0.33259838705733	0
bin	-0.199181006466	0
bin	-0.065763625874667	164
bin	0.067653754716666	2
bin	0.201071135308	0
bin	0.33448851589933	0
bin	0.46790589649067	0
bin	0.601323277082	0
bin	0.73474065767333	1
bin	0.86815803826467	0
bin	1.001575418856	3
bin	1.1349927994473	0
bin	1.2684101800387	0
bin	1.40182756063	1
bin	1.5352449412213	0
bin	1.6686623218127	0
bin	1.802079702404	0
bin	1.9354970829953	2
bin	2.0689144635867	0
bin	2.202331844178	0
bin	2.3357492247693	0
bin	2.4691666053607	0
bin	2.602583985952	0
bin	2.7360013665433	0
bin	2.8694187471347	0
bin	3.002836127726	0
scalar scenarioPRJP1.node[40].app 	sentPk:count 	2610
attr interpolationmode  none
attr source  sentPk
attr title  "packets sent, count"
scalar scenarioPRJP1.node[40].app 	sentPk:sum(packetBytes) 	1336320
attr interpolationmode  none
attr source  sentPk
attr title  "packets sent, sum(packetBytes)"
scalar scenarioPRJP1.node[40].udp 	droppedPkBadChecksum:count 	0
attr interpolationmode  none
attr title  "packets dropped (checksum error), count"
scalar scenarioPRJP1.node[40].udp 	droppedPkWrongPort:count 	0
attr interpolationmode  none
attr title  "packets dropped (wrong port), count"
scalar scenarioPRJP1.node[40].udp 	passedUpPk:count 	174
attr interpolationmode  none
attr title  "packets passed up, count"
scalar scenarioPRJP1.node[40].udp 	rcvdPk:count 	174
attr interpolationmode  none
attr source  rcvdPk
attr title  "packets received, count"
scalar scenarioPRJP1.node[40].udp 	rcvdPk:sum(packetBytes) 	90480
attr interpolationmode  none
attr source  rcvdPk
attr title  "packets received, sum(packetBytes)"
scalar scenarioPRJP1.node[40].udp 	sentPk:count 	2610
attr interpolationmode  none
attr source  sentPk
attr title  "packets sent, count"
scalar scenarioPRJP1.node[40].udp 	sentPk:sum(packetBytes) 	1357200
attr interpolationmode  none
attr source  sentPk
attr title  "packets sent, sum(packetBytes)"
scalar scenarioPRJP1.node[40].networkLayer.arp 	failedARPResolution:count 	8
attr title  "ARP failed resolutions, count"
scalar scenarioPRJP1.node[40].networkLayer.arp 	completedARPResolution:count 	474
attr title  "ARP completed resolutions, count"
scalar scenarioPRJP1.node[40].networkLayer.arp 	initiatedARPResolution:count 	60
attr title  "ARP initiated resolutions, count"
scalar scenarioPRJP1.node[40].networkLayer.arp 	sentReply:count 	45
attr title  "ARP replies sent, count"
scalar scenarioPRJP1.node[40].networkLayer.arp 	sentReq:count 	89
attr title  "ARP request sent, count"
scalar scenarioPRJP1.node[40].mobility 	startTime 	4.9
scalar scenarioPRJP1.node[40].mobility 	totalTime 	945.1
scalar scenarioPRJP1.node[40].mobility 	stopTime 	950
scalar scenarioPRJP1.node[40].mobility 	minSpeed 	0
scalar scenarioPRJP1.node[40].mobility 	maxSpeed 	18.15737452388
scalar scenarioPRJP1.node[40].mobility 	totalDistance 	8980.7308870809
scalar scenarioPRJP1.node[40].mobility 	totalCO2Emission 	2532.5458064145
scalar scenarioPRJP1.node[40].wlan.mgmt 	dataQueueLen:max 	0
attr interpolationmode  sample-hold
attr title  "data queue length, max"
scalar scenarioPRJP1.node[40].wlan.mgmt 	dataQueueLen:timeavg 	0
attr interpolationmode  sample-hold
attr title  "data queue length, timeavg"
scalar scenarioPRJP1.node[40].wlan.mgmt 	dropPkByQueue:count 	0
attr interpolationmode  none
attr source  dropPkByQueue
attr title  "packets dropped by queue, count"
scalar scenarioPRJP1.node[40].wlan.mgmt 	dropPkByQueue:sum(packetBytes) 	0
attr interpolationmode  none
attr source  dropPkByQueue
attr title  "packets dropped by queue, sum(packetBytes)"
scalar scenarioPRJP1.node[40].wlan.mac 	"number of received packets" 	1108
scalar scenarioPRJP1.node[40].wlan.mac 	"number of collisions" 	3924
scalar scenarioPRJP1.node[40].wlan.mac 	"number of internal collisions" 	0
scalar scenarioPRJP1.node[40].wlan.mac 	"number of retry for AC 0" 	1802
scalar scenarioPRJP1.node[40].wlan.mac 	"number of retry for AC 1" 	37
scalar scenarioPRJP1.node[40].wlan.mac 	"number of retry for AC 2" 	0
scalar scenarioPRJP1.node[40].wlan.mac 	"number of retry for AC 3" 	0
scalar scenarioPRJP1.node[40].wlan.mac 	"sent and received bits" 	23783488
scalar scenarioPRJP1.node[40].wlan.mac 	"sent packet within AC 0" 	586
scalar scenarioPRJP1.node[40].wlan.mac 	"sent packet within AC 1" 	36
scalar scenarioPRJP1.node[40].wlan.mac 	"sent packet within AC 2" 	0
scalar scenarioPRJP1.node[40].wlan.mac 	"sent packet within AC 3" 	0
scalar scenarioPRJP1.node[40].wlan.mac 	"sent in TXOP " 	0
scalar scenarioPRJP1.node[40].wlan.mac 	"sentWithoutRetry AC 0" 	546
scalar scenarioPRJP1.node[40].wlan.mac 	"sentWithoutRetry AC 1" 	35
scalar scenarioPRJP1.node[40].wlan.mac 	"sentWithoutRetry AC 2" 	0
scalar scenarioPRJP1.node[40].wlan.mac 	"sentWithoutRetry AC 3" 	0
scalar scenarioPRJP1.node[40].wlan.mac 	"numGivenUp AC 0" 	284
scalar scenarioPRJP1.node[40].wlan.mac 	"numGivenUp AC 1" 	6
scalar scenarioPRJP1.node[40].wlan.mac 	"numGivenUp AC 2" 	0
scalar scenarioPRJP1.node[40].wlan.mac 	"numGivenUp AC 3" 	0
scalar scenarioPRJP1.node[40].wlan.mac 	"numDropped AC 0" 	0
scalar scenarioPRJP1.node[40].wlan.mac 	"numDropped AC 1" 	0
scalar scenarioPRJP1.node[40].wlan.mac 	"numDropped AC 2" 	0
scalar scenarioPRJP1.node[40].wlan.mac 	"numDropped AC 3" 	0
scalar scenarioPRJP1.node[40].wlan.mac 	rcvdPkFromLL:count 	42114
attr interpolationmode  none
attr source  packetReceivedFromLower
attr title  "packets received from lower layer, count"
scalar scenarioPRJP1.node[40].wlan.mac 	rcvdPkFromLL:sum(packetBytes) 	24196052
attr interpolationmode  none
attr source  packetReceivedFromLower
attr title  "packets received from lower layer, sum(packetBytes)"
scalar scenarioPRJP1.node[40].wlan.mac 	sentDownPk:count 	6439
attr interpolationmode  none
attr source  packetSentToLower
attr title  "packets sent to lower layer, count"
scalar scenarioPRJP1.node[40].wlan.mac 	sentDownPk:sum(packetBytes) 	4084884
attr interpolationmode  none
attr source  packetSentToLower
attr title  "packets sent to lower layer, sum(packetBytes)"
scalar scenarioPRJP1.node[40].wlan.mac 	rcvdPkFromHL:count 	3492
attr interpolationmode  none
attr source  packetReceivedFromUpper
attr title  "packets received from higher layer, count"
scalar scenarioPRJP1.node[40].wlan.mac 	rcvdPkFromHL:sum(packetBytes) 	3121712
attr interpolationmode  none
attr source  packetReceivedFromUpper
attr title  "packets received from higher layer, sum(packetBytes)"
scalar scenarioPRJP1.node[40].wlan.mac 	passedUpPk:count 	14290
attr interpolationmode  none
attr source  packetSentToUpper
attr title  "packets passed to higher layer, count"
scalar scenarioPRJP1.node[40].wlan.mac 	passedUpPk:sum(packetBytes) 	14231936
attr interpolationmode  none
attr source  packetSentToUpper
attr title  "packets passed to higher layer, sum(packetBytes)"
statistic scenarioPRJP1.node[40].wlan.radio 	radioChannel:histogram
field count 1
field mean 3
field stddev nan
field sum 3
field sqrsum 9
field min 3
field max 3
attr interpolationmode  sample-hold
attr source  radioChannelChanged
attr title  "Radio channel, histogram"
bin	-INF	0
bin	2	0
bin	3	1
bin	4	0
scalar scenarioPRJP1.node[40].wlan.radio 	transmissionState:count 	25756
attr interpolationmode  sample-hold
attr source  transmissionStateChanged
attr title  "Radio transmission state, count"
scalar scenarioPRJP1.node[40].wlan.radio 	receptionState:count 	97484
attr interpolationmode  sample-hold
attr source  receptionStateChanged
attr title  "Radio reception state, count"
scalar scenarioPRJP1.node[40].wlan.radio 	radioMode:count 	12880
attr interpolationmode  sample-hold
attr source  radioModeChanged
attr title  "Radio mode, count"
statistic scenarioPRJP1.node[40].wlan.radio 	symbolErrorRate:histogram
field count 0
field mean nan
field stddev nan
field sum 0
field sqrsum 0
field min nan
field max nan
attr source  symbolErrorRate
attr title  "Symbol error rate, histogram"
bin	-INF	0
bin	-0.5	0
bin	-0.46666666666667	0
bin	-0.43333333333333	0
bin	-0.4	0
bin	-0.36666666666667	0
bin	-0.33333333333333	0
bin	-0.3	0
bin	-0.26666666666667	0
bin	-0.23333333333333	0
bin	-0.2	0
bin	-0.16666666666667	0
bin	-0.13333333333333	0
bin	-0.1	0
bin	-0.066666666666667	0
bin	-0.033333333333333	0
bin	0	0
bin	0.033333333333333	0
bin	0.066666666666667	0
bin	0.1	0
bin	0.13333333333333	0
bin	0.16666666666667	0
bin	0.2	0
bin	0.23333333333333	0
bin	0.26666666666667	0
bin	0.3	0
bin	0.33333333333333	0
bin	0.36666666666667	0
bin	0.4	0
bin	0.43333333333333	0
bin	0.46666666666667	0
bin	0.5	0
statistic scenarioPRJP1.node[40].wlan.radio 	bitErrorRate:histogram
field count 0
field mean nan
field stddev nan
field sum 0
field sqrsum 0
field min nan
field max nan
attr source  bitErrorRate
attr title  "Bit error rate, histogram"
bin	-INF	0
bin	-0.5	0
bin	-0.46666666666667	0
bin	-0.43333333333333	0
bin	-0.4	0
bin	-0.36666666666667	0
bin	-0.33333333333333	0
bin	-0.3	0
bin	-0.26666666666667	0
bin	-0.23333333333333	0
bin	-0.2	0
bin	-0.16666666666667	0
bin	-0.13333333333333	0
bin	-0.1	0
bin	-0.066666666666667	0
bin	-0.033333333333333	0
bin	0	0
bin	0.033333333333333	0
bin	0.066666666666667	0
bin	0.1	0
bin	0.13333333333333	0
bin	0.16666666666667	0
bin	0.2	0
bin	0.23333333333333	0
bin	0.26666666666667	0
bin	0.3	0
bin	0.33333333333333	0
bin	0.36666666666667	0
bin	0.4	0
bin	0.43333333333333	0
bin	0.46666666666667	0
bin	0.5	0
statistic scenarioPRJP1.node[40].wlan.radio 	packetErrorRate:histogram
field count 42114
field mean 0.087754729296806
field stddev 0.27573817943004
field sum 3695.7026696057
field sqrsum 3526.2317827656
field min 0
field max 1
attr source  packetErrorRate
attr title  "Packet error rate, histogram"
bin	-INF	0
bin	-1	0
bin	0	39339
bin	1	2775
bin	2	0
statistic scenarioPRJP1.node[40].wlan.radio 	minSNIR:histogram
field count 42114
field mean 7777.968418715
field stddev 46981.907074487
field sum 327561361.98576
field sqrsum 95503769661592
field min 0.00073897076693409
field max 753239.71923443
attr source  minSNIR
attr title  "Min SNIR, histogram"
bin	-INF	0
bin	-18465.995108751	0
bin	-16003.841034728	0
bin	-13541.686960705	0
bin	-11079.532886682	0
bin	-8617.3788126588	0
bin	-6155.2247386357	0
bin	-3693.0706646127	0
bin	-1230.9165905896	32722
bin	1231.2374834335	3399
bin	3693.3915574566	1138
bin	6155.5456314796	588
bin	8617.6997055027	394
bin	11079.853779526	608
bin	13542.007853549	387
bin	16004.161927572	316
bin	18466.316001595	210
bin	20928.470075618	237
bin	23390.624149641	147
bin	25852.778223664	99
bin	28314.932297687	101
bin	30777.08637171	63
bin	33239.240445733	94
bin	35701.394519756	71
bin	38163.54859378	75
bin	40625.702667803	36
bin	43087.856741826	56
bin	45550.010815849	29
bin	48012.164889872	33
bin	50474.318963895	49
bin	52936.473037918	27
bin	55398.627111941	1235
scalar scenarioPRJP1.node[40].lo0.lo 	droppedPkBitError:count 	0
attr interpolationmode  none
attr source  dropPkBitError
attr title  "packets dropped/bit error, count"
scalar scenarioPRJP1.node[40].lo0.lo 	droppedPkBitError:sum(packetBytes) 	0
attr interpolationmode  none
attr source  dropPkBitError
attr title  "packets dropped/bit error, sum(packetBytes)"
scalar scenarioPRJP1.node[40].lo0.lo 	rcvdPkFromHL:count 	1
attr interpolationmode  none
attr source  packetReceivedFromUpper
attr title  "packets received from higher layer, count"
scalar scenarioPRJP1.node[40].lo0.lo 	rcvdPkFromHL:sum(packetBytes) 	56
attr interpolationmode  none
attr source  packetReceivedFromUpper
attr title  "packets received from higher layer, sum(packetBytes)"
scalar scenarioPRJP1.node[40].lo0.lo 	passedUpPk:count 	1
attr interpolationmode  none
attr source  packetSentToUpper
attr title  "packets passed to higher layer, count"
scalar scenarioPRJP1.node[40].lo0.lo 	passedUpPk:sum(packetBytes) 	56
attr interpolationmode  none
attr source  packetSentToUpper
attr title  "packets passed to higher layer, sum(packetBytes)"
scalar scenarioPRJP1.node[61].app 	"Total sent" 	2605
scalar scenarioPRJP1.node[61].app 	"Total received" 	182
scalar scenarioPRJP1.node[61].app 	"Total deleted" 	0
scalar scenarioPRJP1.node[61].app 	dropPk:count 	0
attr interpolationmode  none
attr source  dropPk
attr title  "packets dropped, count"
scalar scenarioPRJP1.node[61].app 	dropPk:sum(packetBytes) 	0
attr interpolationmode  none
attr source  dropPk
attr title  "packets dropped, sum(packetBytes)"
scalar scenarioPRJP1.node[61].app 	outOfOrderPk:count 	0
attr interpolationmode  none
attr source  outOfOrderPk
attr title  "packets received out of order, count"
scalar scenarioPRJP1.node[61].app 	outOfOrderPk:sum(packetBytes) 	0
attr interpolationmode  none
attr source  outOfOrderPk
attr title  "packets received out of order, sum(packetBytes)"
scalar scenarioPRJP1.node[61].app 	rcvdPk:count 	182
attr interpolationmode  none
attr source  rcvdPk
attr title  "packets received, count"
scalar scenarioPRJP1.node[61].app 	rcvdPk:sum(packetBytes) 	93184
attr interpolationmode  none
attr source  rcvdPk
attr title  "packets received, sum(packetBytes)"
statistic scenarioPRJP1.node[61].app 	endToEndDelay:histogram
field count 182
field mean 0.076403688558016
field stddev 0.2893267542857
field sum 13.905471317559
field sqrsum 16.213934004734
field min 0.000945026865
field max 2.020524183852
attr interpolationmode  none
attr source  messageAge(rcvdPk)
attr title  "delay, histogram"
attr unit  s
bin	-INF	0
bin	-0.7946183251525	0
bin	-0.68854320504963	0
bin	-0.58246808494677	0
bin	-0.4763929648439	0
bin	-0.37031784474103	0
bin	-0.26424272463817	0
bin	-0.1581676045353	0
bin	-0.052092484432433	168
bin	0.053982635670433	1
bin	0.1600577557733	0
bin	0.26613287587617	2
bin	0.37220799597903	0
bin	0.4782831160819	3
bin	0.58435823618477	0
bin	0.69043335628763	1
bin	0.7965084763905	0
bin	0.90258359649337	1
bin	1.0086587165962	2
bin	1.1147338366991	0
bin	1.220808956802	1
bin	1.3268840769048	0
bin	1.4329591970077	0
bin	1.5390343171106	1
bin	1.6451094372134	0
bin	1.7511845573163	1
bin	1.8572596774192	0
bin	1.963334797522	1
bin	2.0694099176249	0
bin	2.1754850377278	0
bin	2.2815601578306	0
bin	2.3876352779335	0
scalar scenarioPRJP1.node[61].app 	sentPk:count 	2605
attr interpolationmode  none
attr source  sentPk
attr title  "packets sent, count"
scalar scenarioPRJP1.node[61].app 	sentPk:sum(packetBytes) 	1333760
attr interpolationmode  none
attr source  sentPk
attr title  "packets sent, sum(packetBytes)"
scalar scenarioPRJP1.node[61].udp 	droppedPkBadChecksum:count 	0
attr interpolationmode  none
attr title  "packets dropped (checksum error), count"
scalar scenarioPRJP1.node[61].udp 	droppedPkWrongPort:count 	0
attr interpolationmode  none
attr title  "packets dropped (wrong port), count"
scalar scenarioPRJP1.node[61].udp 	passedUpPk:count 	182
attr interpolationmode  none
attr title  "packets passed up, count"
scalar scenarioPRJP1.node[61].udp 	rcvdPk:count 	182
attr interpolationmode  none
attr source  rcvdPk
attr title  "packets received, count"
scalar scenarioPRJP1.node[61].udp 	rcvdPk:sum(packetBytes) 	94640
attr interpolationmode  none
attr source  rcvdPk
attr title  "packets received, sum(packetBytes)"
scalar scenarioPRJP1.node[61].udp 	sentPk:count 	2605
attr interpolationmode  none
attr source  sentPk
attr title  "packets sent, count"
scalar scenarioPRJP1.node[61].udp 	sentPk:sum(packetBytes) 	1354600
attr interpolationmode  none
attr source  sentPk
attr title  "packets sent, sum(packetBytes)"
scalar scenarioPRJP1.node[61].networkLayer.arp 	failedARPResolution:count 	9
attr title  "ARP failed resolutions, count"
scalar scenarioPRJP1.node[61].networkLayer.arp 	completedARPResolution:count 	377
attr title  "ARP completed resolutions, count"
scalar scenarioPRJP1.node[61].networkLayer.arp 	initiatedARPResolution:count 	60
attr title  "ARP initiated resolutions, count"
scalar scenarioPRJP1.node[61].networkLayer.arp 	sentReply:count 	45
attr title  "ARP replies sent, count"
scalar scenarioPRJP1.node[61].networkLayer.arp 	sentReq:count 	90
attr title  "ARP request sent, count"
scalar scenarioPRJP1.node[61].mobility 	startTime 	7.3
scalar scenarioPRJP1.node[61].mobility 	totalTime 	942.7
scalar scenarioPRJP1.node[61].mobility 	stopTime 	950
scalar scenarioPRJP1.node[61].mobility 	minSpeed 	2.4755224128862e-13
scalar scenarioPRJP1.node[61].mobility 	maxSpeed 	18.247816102722
scalar scenarioPRJP1.node[61].mobility 	totalDistance 	9681.484182178
scalar scenarioPRJP1.node[61].mobility 	totalCO2Emission 	2541.3352714377
scalar scenarioPRJP1.node[61].wlan.mgmt 	dataQueueLen:max 	0
attr interpolationmode  sample-hold
attr title  "data queue length, max"
scalar scenarioPRJP1.node[61].wlan.mgmt 	dataQueueLen:timeavg 	0
attr interpolationmode  sample-hold
attr title  "data queue length, timeavg"
scalar scenarioPRJP1.node[61].wlan.mgmt 	dropPkByQueue:count 	0
attr interpolationmode  none
attr source  dropPkByQueue
attr title  "packets dropped by queue, count"
scalar scenarioPRJP1.node[61].wlan.mgmt 	dropPkByQueue:sum(packetBytes) 	0
attr interpolationmode  none
attr source  dropPkByQueue
attr title  "packets dropped by queue, sum(packetBytes)"
scalar scenarioPRJP1.node[61].wlan.mac 	"number of received packets" 	2412
scalar scenarioPRJP1.node[61].wlan.mac 	"number of collisions" 	4143
scalar scenarioPRJP1.node[61].wlan.mac 	"number of internal collisions" 	1
scalar scenarioPRJP1.node[61].wlan.mac 	"number of retry for AC 0" 	2780
scalar scenarioPRJP1.node[61].wlan.mac 	"number of retry for AC 1" 	37
scalar scenarioPRJP1.node[61].wlan.mac 	"number of retry for AC 2" 	0
scalar scenarioPRJP1.node[61].wlan.mac 	"number of retry for AC 3" 	0
scalar scenarioPRJP1.node[61].wlan.mac 	"sent and received bits" 	24521344
scalar scenarioPRJP1.node[61].wlan.mac 	"sent packet within AC 0" 	807
scalar scenarioPRJP1.node[61].wlan.mac 	"sent packet within AC 1" 	36
scalar scenarioPRJP1.node[61].wlan.mac 	"sent packet within AC 2" 	0
scalar scenarioPRJP1.node[61].wlan.mac 	"sent packet within AC 3" 	0
scalar scenarioPRJP1.node[61].wlan.mac 	"sent in TXOP " 	0
scalar scenarioPRJP1.node[61].wlan.mac 	"sentWithoutRetry AC 0" 	764
scalar scenarioPRJP1.node[61].wlan.mac 	"sentWithoutRetry AC 1" 	35
scalar scenarioPRJP1.node[61].wlan.mac 	"sentWithoutRetry AC 2" 	0
scalar scenarioPRJP1.node[61].wlan.mac 	"sentWithoutRetry AC 3" 	0
scalar scenarioPRJP1.node[61].wlan.mac 	"numGivenUp AC 0" 	449
scalar scenarioPRJP1.node[61].wlan.mac 	"numGivenUp AC 1" 	6
scalar scenarioPRJP1.node[61].wlan.mac 	"numGivenUp AC 2" 	0
scalar scenarioPRJP1.node[61].wlan.mac 	"numGivenUp AC 3" 	0
scalar scenarioPRJP1.node[61].wlan.mac 	"numDropped AC 0" 	0
scalar scenarioPRJP1.node[61].wlan.mac 	"numDropped AC 1" 	0
scalar scenarioPRJP1.node[61].wlan.mac 	"numDropped AC 2" 	0
scalar scenarioPRJP1.node[61].wlan.mac 	"numDropped AC 3" 	0
scalar scenarioPRJP1.node[61].wlan.mac 	rcvdPkFromLL:count 	38073
attr interpolationmode  none
attr source  packetReceivedFromLower
attr title  "packets received from lower layer, count"
scalar scenarioPRJP1.node[61].wlan.mac 	rcvdPkFromLL:sum(packetBytes) 	21294438
attr interpolationmode  none
attr source  packetReceivedFromLower
attr title  "packets received from lower layer, sum(packetBytes)"
scalar scenarioPRJP1.node[61].wlan.mac 	sentDownPk:count 	9076
attr interpolationmode  none
attr source  packetSentToLower
attr title  "packets sent to lower layer, count"
scalar scenarioPRJP1.node[61].wlan.mac 	sentDownPk:sum(packetBytes) 	4876204
attr interpolationmode  none
attr source  packetSentToLower
attr title  "packets sent to lower layer, sum(packetBytes)"
scalar scenarioPRJP1.node[61].wlan.mac 	rcvdPkFromHL:count 	3848
attr interpolationmode  none
attr source  packetReceivedFromUpper
attr title  "packets received from higher layer, count"
scalar scenarioPRJP1.node[61].wlan.mac 	rcvdPkFromHL:sum(packetBytes) 	3312056
attr interpolationmode  none
attr source  packetReceivedFromUpper
attr title  "packets received from higher layer, sum(packetBytes)"
scalar scenarioPRJP1.node[61].wlan.mac 	passedUpPk:count 	12532
attr interpolationmode  none
attr source  packetSentToUpper
attr title  "packets passed to higher layer, count"
scalar scenarioPRJP1.node[61].wlan.mac 	passedUpPk:sum(packetBytes) 	12270200
attr interpolationmode  none
attr source  packetSentToUpper
attr title  "packets passed to higher layer, sum(packetBytes)"
statistic scenarioPRJP1.node[61].wlan.radio 	radioChannel:histogram
field count 1
field mean 3
field stddev nan
field sum 3
field sqrsum 9
field min 3
field max 3
attr interpolationmode  sample-hold
attr source  radioChannelChanged
attr title  "Radio channel, histogram"
bin	-INF	0
bin	2	0
bin	3	1
bin	4	0
scalar scenarioPRJP1.node[61].wlan.radio 	transmissionState:count 	36304
attr interpolationmode  sample-hold
attr source  transmissionStateChanged
attr title  "Radio transmission state, count"
scalar scenarioPRJP1.node[61].wlan.radio 	receptionState:count 	94721
attr interpolationmode  sample-hold
attr source  receptionStateChanged
attr title  "Radio reception state, count"
scalar scenarioPRJP1.node[61].wlan.radio 	radioMode:count 	18154
attr interpolationmode  sample-hold
attr source  radioModeChanged
attr title  "Radio mode, count"
statistic scenarioPRJP1.node[61].wlan.radio 	symbolErrorRate:histogram
field count 0
field mean nan
field stddev nan
field sum 0
field sqrsum 0
field min nan
field max nan
attr source  symbolErrorRate
attr title  "Symbol error rate, histogram"
bin	-INF	0
bin	-0.5	0
bin	-0.46666666666667	0
bin	-0.43333333333333	0
bin	-0.4	0
bin	-0.36666666666667	0
bin	-0.33333333333333	0
bin	-0.3	0
bin	-0.26666666666667	0
bin	-0.23333333333333	0
bin	-0.2	0
bin	-0.16666666666667	0
bin	-0.13333333333333	0
bin	-0.1	0
bin	-0.066666666666667	0
bin	-0.033333333333333	0
bin	0	0
bin	0.033333333333333	0
bin	0.066666666666667	0
bin	0.1	0
bin	0.13333333333333	0
bin	0.16666666666667	0
bin	0.2	0
bin	0.23333333333333	0
bin	0.26666666666667	0
bin	0.3	0
bin	0.33333333333333	0
bin	0.36666666666667	0
bin	0.4	0
bin	0.43333333333333	0
bin	0.46666666666667	0
bin	0.5	0
statistic scenarioPRJP1.node[61].wlan.radio 	bitErrorRate:histogram
field count 0
field mean nan
field stddev nan
field sum 0
field sqrsum 0
field min nan
field max nan
attr source  bitErrorRate
attr title  "Bit error rate, histogram"
bin	-INF	0
bin	-0.5	0
bin	-0.46666666666667	0
bin	-0.43333333333333	0
bin	-0.4	0
bin	-0.36666666666667	0
bin	-0.33333333333333	0
bin	-0.3	0
bin	-0.26666666666667	0
bin	-0.23333333333333	0
bin	-0.2	0
bin	-0.16666666666667	0
bin	-0.13333333333333	0
bin	-0.1	0
bin	-0.066666666666667	0
bin	-0.033333333333333	0
bin	0	0
bin	0.033333333333333	0
bin	0.066666666666667	0
bin	0.1	0
bin	0.13333333333333	0
bin	0.16666666666667	0
bin	0.2	0
bin	0.23333333333333	0
bin	0.26666666666667	0
bin	0.3	0
bin	0.33333333333333	0
bin	0.36666666666667	0
bin	0.4	0
bin	0.43333333333333	0
bin	0.46666666666667	0
bin	0.5	0
statistic scenarioPRJP1.node[61].wlan.radio 	packetErrorRate:histogram
field count 38073
field mean 0.10256957805023
field stddev 0.29713842382639
field sum 3905.1315451064
field sqrsum 3761.9718950351
field min 0
field max 1
attr source  packetErrorRate
attr title  "Packet error rate, histogram"
bin	-INF	0
bin	-0.5	0
bin	-0.43333333333333	0
bin	-0.36666666666667	0
bin	-0.3	0
bin	-0.23333333333333	0
bin	-0.16666666666667	0
bin	-0.1	0
bin	-0.033333333333333	33574
bin	0.033333333333333	252
bin	0.1	96
bin	0.16666666666667	74
bin	0.23333333333333	85
bin	0.3	64
bin	0.36666666666667	46
bin	0.43333333333333	42
bin	0.5	31
bin	0.56666666666667	32
bin	0.63333333333333	27
bin	0.7	37
bin	0.76666666666667	37
bin	0.83333333333333	48
bin	0.9	83
bin	0.96666666666667	3545
bin	1.0333333333333	0
bin	1.1	0
bin	1.1666666666667	0
bin	1.2333333333333	0
bin	1.3	0
bin	1.3666666666667	0
bin	1.4333333333333	0
bin	1.5	0
statistic scenarioPRJP1.node[61].wlan.radio 	minSNIR:histogram
field count 38073
field mean 7232.1850728428
field stddev 46741.027340565
field sum 275350982.27834
field sqrsum 85168187566036
field min 0.00084398128108056
field max 753239.71923441
attr source  minSNIR
attr title  "Min SNIR, histogram"
bin	-INF	0
bin	-13230.900683703	0
bin	-11466.727887609	0
bin	-9702.5550915141	0
bin	-7938.3822954197	0
bin	-6174.2094993253	0
bin	-4410.0367032308	0
bin	-2645.8639071364	0
bin	-881.69111104199	30111
bin	882.48168505244	2483
bin	2646.6544811469	1135
bin	4410.8272772413	629
bin	6175.0000733357	366
bin	7939.1728694302	247
bin	9703.3456655246	359
bin	11467.518461619	291
bin	13231.691257713	148
bin	14995.864053808	139
bin	16760.036849902	74
bin	18524.209645997	97
bin	20288.382442091	108
bin	22052.555238186	247
bin	23816.72803428	253
bin	25580.900830374	56
bin	27345.073626469	74
bin	29109.246422563	34
bin	30873.419218658	33
bin	32637.592014752	89
bin	34401.764810847	13
bin	36165.937606941	11
bin	37930.110403035	21
bin	39694.28319913	1055
scalar scenarioPRJP1.node[61].lo0.lo 	droppedPkBitError:count 	0
attr interpolationmode  none
attr source  dropPkBitError
attr title  "packets dropped/bit error, count"
scalar scenarioPRJP1.node[61].lo0.lo 	droppedPkBitError:sum(packetBytes) 	0
attr interpolationmode  none
attr source  dropPkBitError
attr title  "packets dropped/bit error, sum(packetBytes)"
scalar scenarioPRJP1.node[61].lo0.lo 	rcvdPkFromHL:count 	12
attr interpolationmode  none
attr source  packetReceivedFromUpper
attr title  "packets received from higher layer, count"
scalar scenarioPRJP1.node[61].lo0.lo 	rcvdPkFromHL:sum(packetBytes) 	672
attr interpolationmode  none
attr source  packetReceivedFromUpper
attr title  "packets received from higher layer, sum(packetBytes)"
scalar scenarioPRJP1.node[61].lo0.lo 	passedUpPk:count 	12
attr interpolationmode  none
attr source  packetSentToUpper
attr title  "packets passed to higher layer, count"
scalar scenarioPRJP1.node[61].lo0.lo 	passedUpPk:sum(packetBytes) 	672
attr interpolationmode  none
attr source  packetSentToUpper
attr title  "packets passed to higher layer, sum(packetBytes)"
scalar scenarioPRJP1.node[1].app 	"Total sent" 	2615
scalar scenarioPRJP1.node[1].app 	"Total received" 	210
scalar scenarioPRJP1.node[1].app 	"Total deleted" 	0
scalar scenarioPRJP1.node[1].app 	dropPk:count 	0
attr interpolationmode  none
attr source  dropPk
attr title  "packets dropped, count"
scalar scenarioPRJP1.node[1].app 	dropPk:sum(packetBytes) 	0
attr interpolationmode  none
attr source  dropPk
attr title  "packets dropped, sum(packetBytes)"
scalar scenarioPRJP1.node[1].app 	outOfOrderPk:count 	0
attr interpolationmode  none
attr source  outOfOrderPk
attr title  "packets received out of order, count"
scalar scenarioPRJP1.node[1].app 	outOfOrderPk:sum(packetBytes) 	0
attr interpolationmode  none
attr source  outOfOrderPk
attr title  "packets received out of order, sum(packetBytes)"
scalar scenarioPRJP1.node[1].app 	rcvdPk:count 	210
attr interpolationmode  none
attr source  rcvdPk
attr title  "packets received, count"
scalar scenarioPRJP1.node[1].app 	rcvdPk:sum(packetBytes) 	107520
attr interpolationmode  none
attr source  rcvdPk
attr title  "packets received, sum(packetBytes)"
statistic scenarioPRJP1.node[1].app 	endToEndDelay:histogram
field count 210
field mean 0.100066061447
field stddev 0.31557430645436
field sum 21.013872903869
field sqrsum 22.916488362116
field min 0.000945011007
field max 2.010555720535
attr interpolationmode  none
attr source  messageAge(rcvdPk)
attr title  "delay, histogram"
attr unit  s
bin	-INF	0
bin	-1.003860343757	0
bin	-0.86988629645513	0
bin	-0.73591224915327	0
bin	-0.6019382018514	0
bin	-0.46796415454953	0
bin	-0.33399010724767	0
bin	-0.2000160599458	0
bin	-0.066042012643933	188
bin	0.067932034657933	3
bin	0.2019060819598	3
bin	0.33588012926167	1
bin	0.46985417656353	0
bin	0.6038282238654	0
bin	0.73780227116727	1
bin	0.87177631846913	4
bin	1.005750365771	5
bin	1.1397244130729	0
bin	1.2736984603747	2
bin	1.4076725076766	1
bin	1.5416465549785	1
bin	1.6756206022803	0
bin	1.8095946495822	0
bin	1.9435686968841	1
bin	2.0775427441859	0
bin	2.2115167914878	0
bin	2.3454908387897	0
bin	2.4794648860915	0
bin	2.6134389333934	0
bin	2.7474129806953	0
bin	2.8813870279971	0
bin	3.015361075299	0
scalar scenarioPRJP1.node[1].app 	sentPk:count 	2615
attr interpolationmode  none
attr source  sentPk
attr title  "packets sent, count"
scalar scenarioPRJP1.node[1].app 	sentPk:sum(packetBytes) 	1338880
attr interpolationmode  none
attr source  sentPk
attr title  "packets sent, sum(packetBytes)"
scalar scenarioPRJP1.node[1].udp 	droppedPkBadChecksum:count 	0
attr interpolationmode  none
attr title  "packets dropped (checksum error), count"
scalar scenarioPRJP1.node[1].udp 	droppedPkWrongPort:count 	0
attr interpolationmode  none
attr title  "packets dropped (wrong port), count"
scalar scenarioPRJP1.node[1].udp 	passedUpPk:count 	210
attr interpolationmode  none
attr title  "packets passed up, count"
scalar scenarioPRJP1.node[1].udp 	rcvdPk:count 	210
attr interpolationmode  none
attr source  rcvdPk
attr title  "packets received, count"
scalar scenarioPRJP1.node[1].udp 	rcvdPk:sum(packetBytes) 	109200
attr interpolationmode  none
attr source  rcvdPk
attr title  "packets received, sum(packetBytes)"
scalar scenarioPRJP1.node[1].udp 	sentPk:count 	2615
attr interpolationmode  none
attr source  sentPk
attr title  "packets sent, count"
scalar scenarioPRJP1.node[1].udp 	sentPk:sum(packetBytes) 	1359800
attr interpolationmode  none
attr source  sentPk
attr title  "packets sent, sum(packetBytes)"
scalar scenarioPRJP1.node[1].networkLayer.arp 	failedARPResolution:count 	3
attr title  "ARP failed resolutions, count"
scalar scenarioPRJP1.node[1].networkLayer.arp 	completedARPResolution:count 	425
attr title  "ARP completed resolutions, count"
scalar scenarioPRJP1.node[1].networkLayer.arp 	initiatedARPResolution:count 	51
attr title  "ARP initiated resolutions, count"
scalar scenarioPRJP1.node[1].networkLayer.arp 	sentReply:count 	42
attr title  "ARP replies sent, count"
scalar scenarioPRJP1.node[1].networkLayer.arp 	sentReq:count 	66
attr title  "ARP request sent, count"
scalar scenarioPRJP1.node[1].mobility 	startTime 	0.1
scalar scenarioPRJP1.node[1].mobility 	totalTime 	949.9
scalar scenarioPRJP1.node[1].mobility 	stopTime 	950
scalar scenarioPRJP1.node[1].mobility 	minSpeed 	2.4760860003317e-13
scalar scenarioPRJP1.node[1].mobility 	maxSpeed 	20.124706574516
scalar scenarioPRJP1.node[1].mobility 	totalDistance 	8060.1800489302
scalar scenarioPRJP1.node[1].mobility 	totalCO2Emission 	2593.0565338574
scalar scenarioPRJP1.node[1].wlan.mgmt 	dataQueueLen:max 	0
attr interpolationmode  sample-hold
attr title  "data queue length, max"
scalar scenarioPRJP1.node[1].wlan.mgmt 	dataQueueLen:timeavg 	0
attr interpolationmode  sample-hold
attr title  "data queue length, timeavg"
scalar scenarioPRJP1.node[1].wlan.mgmt 	dropPkByQueue:count 	0
attr interpolationmode  none
attr source  dropPkByQueue
attr title  "packets dropped by queue, count"
scalar scenarioPRJP1.node[1].wlan.mgmt 	dropPkByQueue:sum(packetBytes) 	0
attr interpolationmode  none
attr source  dropPkByQueue
attr title  "packets dropped by queue, sum(packetBytes)"
scalar scenarioPRJP1.node[1].wlan.mac 	"number of received packets" 	1864
scalar scenarioPRJP1.node[1].wlan.mac 	"number of collisions" 	4046
scalar scenarioPRJP1.node[1].wlan.mac 	"number of internal collisions" 	1
scalar scenarioPRJP1.node[1].wlan.mac 	"number of retry for AC 0" 	2257
scalar scenarioPRJP1.node[1].wlan.mac 	"number of retry for AC 1" 	39
scalar scenarioPRJP1.node[1].wlan.mac 	"number of retry for AC 2" 	0
scalar scenarioPRJP1.node[1].wlan.mac 	"number of retry for AC 3" 	0
scalar scenarioPRJP1.node[1].wlan.mac 	"sent and received bits" 	25901120
scalar scenarioPRJP1.node[1].wlan.mac 	"sent packet within AC 0" 	885
scalar scenarioPRJP1.node[1].wlan.mac 	"sent packet within AC 1" 	50
scalar scenarioPRJP1.node[1].wlan.mac 	"sent packet within AC 2" 	0
scalar scenarioPRJP1.node[1].wlan.mac 	"sent packet within AC 3" 	0
scalar scenarioPRJP1.node[1].wlan.mac 	"sent in TXOP " 	0
scalar scenarioPRJP1.node[1].wlan.mac 	"sentWithoutRetry AC 0" 	828
scalar scenarioPRJP1.node[1].wlan.mac 	"sentWithoutRetry AC 1" 	48
scalar scenarioPRJP1.node[1].wlan.mac 	"sentWithoutRetry AC 2" 	0
scalar scenarioPRJP1.node[1].wlan.mac 	"sentWithoutRetry AC 3" 	0
scalar scenarioPRJP1.node[1].wlan.mac 	"numGivenUp AC 0" 	358
scalar scenarioPRJP1.node[1].wlan.mac 	"numGivenUp AC 1" 	6
scalar scenarioPRJP1.node[1].wlan.mac 	"numGivenUp AC 2" 	0
scalar scenarioPRJP1.node[1].wlan.mac 	"numGivenUp AC 3" 	0
scalar scenarioPRJP1.node[1].wlan.mac 	"numDropped AC 0" 	0
scalar scenarioPRJP1.node[1].wlan.mac 	"numDropped AC 1" 	0
scalar scenarioPRJP1.node[1].wlan.mac 	"numDropped AC 2" 	0
scalar scenarioPRJP1.node[1].wlan.mac 	"numDropped AC 3" 	0
scalar scenarioPRJP1.node[1].wlan.mac 	rcvdPkFromLL:count 	42716
attr interpolationmode  none
attr source  packetReceivedFromLower
attr title  "packets received from lower layer, count"
scalar scenarioPRJP1.node[1].wlan.mac 	rcvdPkFromLL:sum(packetBytes) 	23759658
attr interpolationmode  none
attr source  packetReceivedFromLower
attr title  "packets received from lower layer, sum(packetBytes)"
scalar scenarioPRJP1.node[1].wlan.mac 	sentDownPk:count 	8114
attr interpolationmode  none
attr source  packetSentToLower
attr title  "packets sent to lower layer, count"
scalar scenarioPRJP1.node[1].wlan.mac 	sentDownPk:sum(packetBytes) 	4704932
attr interpolationmode  none
attr source  packetSentToLower
attr title  "packets sent to lower layer, sum(packetBytes)"
scalar scenarioPRJP1.node[1].wlan.mac 	rcvdPkFromHL:count 	3955
attr interpolationmode  none
attr source  packetReceivedFromUpper
attr title  "packets received from higher layer, count"
scalar scenarioPRJP1.node[1].wlan.mac 	rcvdPkFromHL:sum(packetBytes) 	3434672
attr interpolationmode  none
attr source  packetReceivedFromUpper
attr title  "packets received from higher layer, sum(packetBytes)"
scalar scenarioPRJP1.node[1].wlan.mac 	passedUpPk:count 	13754
attr interpolationmode  none
attr source  packetSentToUpper
attr title  "packets passed to higher layer, count"
scalar scenarioPRJP1.node[1].wlan.mac 	passedUpPk:sum(packetBytes) 	13443644
attr interpolationmode  none
attr source  packetSentToUpper
attr title  "packets passed to higher layer, sum(packetBytes)"
statistic scenarioPRJP1.node[1].wlan.radio 	radioChannel:histogram
field count 1
field mean 3
field stddev nan
field sum 3
field sqrsum 9
field min 3
field max 3
attr interpolationmode  sample-hold
attr source  radioChannelChanged
attr title  "Radio channel, histogram"
bin	-INF	0
bin	2	0
bin	3	1
bin	4	0
scalar scenarioPRJP1.node[1].wlan.radio 	transmissionState:count 	32456
attr interpolationmode  sample-hold
attr source  transmissionStateChanged
attr title  "Radio transmission state, count"
scalar scenarioPRJP1.node[1].wlan.radio 	receptionState:count 	102408
attr interpolationmode  sample-hold
attr source  receptionStateChanged
attr title  "Radio reception state, count"
scalar scenarioPRJP1.node[1].wlan.radio 	radioMode:count 	16230
attr interpolationmode  sample-hold
attr source  radioModeChanged
attr title  "Radio mode, count"
statistic scenarioPRJP1.node[1].wlan.radio 	symbolErrorRate:histogram
field count 0
field mean nan
field stddev nan
field sum 0
field sqrsum 0
field min nan
field max nan
attr source  symbolErrorRate
attr title  "Symbol error rate, histogram"
bin	-INF	0
bin	-0.5	0
bin	-0.46666666666667	0
bin	-0.43333333333333	0
bin	-0.4	0
bin	-0.36666666666667	0
bin	-0.33333333333333	0
bin	-0.3	0
bin	-0.26666666666667	0
bin	-0.23333333333333	0
bin	-0.2	0
bin	-0.16666666666667	0
bin	-0.13333333333333	0
bin	-0.1	0
bin	-0.066666666666667	0
bin	-0.033333333333333	0
bin	0	0
bin	0.033333333333333	0
bin	0.066666666666667	0
bin	0.1	0
bin	0.13333333333333	0
bin	0.16666666666667	0
bin	0.2	0
bin	0.23333333333333	0
bin	0.26666666666667	0
bin	0.3	0
bin	0.33333333333333	0
bin	0.36666666666667	0
bin	0.4	0
bin	0.43333333333333	0
bin	0.46666666666667	0
bin	0.5	0
statistic scenarioPRJP1.node[1].wlan.radio 	bitErrorRate:histogram
field count 0
field mean nan
field stddev nan
field sum 0
field sqrsum 0
field min nan
field max nan
attr source  bitErrorRate
attr title  "Bit error rate, histogram"
bin	-INF	0
bin	-0.5	0
bin	-0.46666666666667	0
bin	-0.43333333333333	0
bin	-0.4	0
bin	-0.36666666666667	0
bin	-0.33333333333333	0
bin	-0.3	0
bin	-0.26666666666667	0
bin	-0.23333333333333	0
bin	-0.2	0
bin	-0.16666666666667	0
bin	-0.13333333333333	0
bin	-0.1	0
bin	-0.066666666666667	0
bin	-0.033333333333333	0
bin	0	0
bin	0.033333333333333	0
bin	0.066666666666667	0
bin	0.1	0
bin	0.13333333333333	0
bin	0.16666666666667	0
bin	0.2	0
bin	0.23333333333333	0
bin	0.26666666666667	0
bin	0.3	0
bin	0.33333333333333	0
bin	0.36666666666667	0
bin	0.4	0
bin	0.43333333333333	0
bin	0.46666666666667	0
bin	0.5	0
statistic scenarioPRJP1.node[1].wlan.radio 	packetErrorRate:histogram
field count 42716
field mean 0.088984460630057
field stddev 0.27808882282576
field sum 3801.0602202735
field sqrsum 3641.5311917763
field min 0
field max 1
attr source  packetErrorRate
attr title  "Packet error rate, histogram"
bin	-INF	0
bin	-0.5	0
bin	-0.43333333333333	0
bin	-0.36666666666667	0
bin	-0.3	0
bin	-0.23333333333333	0
bin	-0.16666666666667	0
bin	-0.1	0
bin	-0.033333333333333	38316
bin	0.033333333333333	212
bin	0.1	104
bin	0.16666666666667	106
bin	0.23333333333333	60
bin	0.3	55
bin	0.36666666666667	60
bin	0.43333333333333	55
bin	0.5	55
bin	0.56666666666667	38
bin	0.63333333333333	40
bin	0.7	36
bin	0.76666666666667	51
bin	0.83333333333333	53
bin	0.9	68
bin	0.96666666666667	3407
bin	1.0333333333333	0
bin	1.1	0
bin	1.1666666666667	0
bin	1.2333333333333	0
bin	1.3	0
bin	1.3666666666667	0
bin	1.4333333333333	0
bin	1.5	0
statistic scenarioPRJP1.node[1].wlan.radio 	minSNIR:histogram
field count 42716
field mean 14912.996435838
field stddev 108693.26574005
field sum 637023555.75327
field sqrsum 5.1414459434273e+14
field min 0.00025655462178914
field max 13910882.354539
attr source  minSNIR
attr title  "Min SNIR, histogram"
bin	-INF	0
bin	-11934.532849321	0
bin	-10343.117584607	0
bin	-8751.7023198935	0
bin	-7160.2870551795	0
bin	-5568.8717904656	0
bin	-3977.4565257516	0
bin	-2386.0412610376	0
bin	-794.62599632367	30942
bin	796.78926839029	3308
bin	2388.2045331043	1271
bin	3979.6197978182	865
bin	5571.0350625322	591
bin	7162.4503272461	655
bin	8753.8655919601	349
bin	10345.280856674	261
bin	11936.696121388	292
bin	13528.111386102	159
bin	15119.526650816	212
bin	16710.94191553	145
bin	18302.357180244	164
bin	19893.772444958	147
bin	21485.187709672	78
bin	23076.602974386	311
bin	24668.0182391	69
bin	26259.433503814	86
bin	27850.848768528	63
bin	29442.264033242	70
bin	31033.679297956	40
bin	32625.09456267	54
bin	34216.509827383	24
bin	35807.925092097	2560
scalar scenarioPRJP1.node[1].lo0.lo 	droppedPkBitError:count 	0
attr interpolationmode  none
attr source  dropPkBitError
attr title  "packets dropped/bit error, count"
scalar scenarioPRJP1.node[1].lo0.lo 	droppedPkBitError:sum(packetBytes) 	0
attr interpolationmode  none
attr source  dropPkBitError
attr title  "packets dropped/bit error, sum(packetBytes)"
scalar scenarioPRJP1.node[1].lo0.lo 	rcvdPkFromHL:count 	8
attr interpolationmode  none
attr source  packetReceivedFromUpper
attr title  "packets received from higher layer, count"
scalar scenarioPRJP1.node[1].lo0.lo 	rcvdPkFromHL:sum(packetBytes) 	448
attr interpolationmode  none
attr source  packetReceivedFromUpper
attr title  "packets received from higher layer, sum(packetBytes)"
scalar scenarioPRJP1.node[1].lo0.lo 	passedUpPk:count 	8
attr interpolationmode  none
attr source  packetSentToUpper
attr title  "packets passed to higher layer, count"
scalar scenarioPRJP1.node[1].lo0.lo 	passedUpPk:sum(packetBytes) 	448
attr interpolationmode  none
attr source  packetSentToUpper
attr title  "packets passed to higher layer, sum(packetBytes)"
scalar scenarioPRJP1.node[21].app 	"Total sent" 	2596
scalar scenarioPRJP1.node[21].app 	"Total received" 	177
scalar scenarioPRJP1.node[21].app 	"Total deleted" 	0
scalar scenarioPRJP1.node[21].app 	dropPk:count 	0
attr interpolationmode  none
attr source  dropPk
attr title  "packets dropped, count"
scalar scenarioPRJP1.node[21].app 	dropPk:sum(packetBytes) 	0
attr interpolationmode  none
attr source  dropPk
attr title  "packets dropped, sum(packetBytes)"
scalar scenarioPRJP1.node[21].app 	outOfOrderPk:count 	1
attr interpolationmode  none
attr source  outOfOrderPk
attr title  "packets received out of order, count"
scalar scenarioPRJP1.node[21].app 	outOfOrderPk:sum(packetBytes) 	512
attr interpolationmode  none
attr source  outOfOrderPk
attr title  "packets received out of order, sum(packetBytes)"
scalar scenarioPRJP1.node[21].app 	rcvdPk:count 	177
attr interpolationmode  none
attr source  rcvdPk
attr title  "packets received, count"
scalar scenarioPRJP1.node[21].app 	rcvdPk:sum(packetBytes) 	90624
attr interpolationmode  none
attr source  rcvdPk
attr title  "packets received, sum(packetBytes)"
statistic scenarioPRJP1.node[21].app 	endToEndDelay:histogram
field count 177
field mean 0.058665241091469
field stddev 0.24074648742858
field sum 10.38374767319
field sqrsum 10.8099263935
field min 0.000945011007
field max 2.036959223176
attr interpolationmode  none
attr source  messageAge(rcvdPk)
attr title  "delay, histogram"
attr unit  s
bin	-INF	0
bin	-0.6246836155385	0
bin	-0.54126646533243	0
bin	-0.45784931512637	0
bin	-0.3744321649203	0
bin	-0.29101501471423	0
bin	-0.20759786450817	0
bin	-0.1241807143021	0
bin	-0.040763564096033	163
bin	0.042653586110033	5
bin	0.1260707363161	1
bin	0.20948788652217	0
bin	0.29290503672823	1
bin	0.3763221869343	0
bin	0.45973933714037	0
bin	0.54315648734643	0
bin	0.6265736375525	0
bin	0.70999078775857	1
bin	0.79340793796463	0
bin	0.8768250881707	0
bin	0.96024223837677	3
bin	1.0436593885828	1
bin	1.1270765387889	0
bin	1.210493688995	1
bin	1.293910839201	0
bin	1.3773279894071	0
bin	1.4607451396132	0
bin	1.5441622898192	0
bin	1.6275794400253	0
bin	1.7109965902314	0
bin	1.7944137404374	0
bin	1.8778308906435	1
scalar scenarioPRJP1.node[21].app 	sentPk:count 	2596
attr interpolationmode  none
attr source  sentPk
attr title  "packets sent, count"
scalar scenarioPRJP1.node[21].app 	sentPk:sum(packetBytes) 	1329152
attr interpolationmode  none
attr source  sentPk
attr title  "packets sent, sum(packetBytes)"
scalar scenarioPRJP1.node[21].udp 	droppedPkBadChecksum:count 	0
attr interpolationmode  none
attr title  "packets dropped (checksum error), count"
scalar scenarioPRJP1.node[21].udp 	droppedPkWrongPort:count 	0
attr interpolationmode  none
attr title  "packets dropped (wrong port), count"
scalar scenarioPRJP1.node[21].udp 	passedUpPk:count 	178
attr interpolationmode  none
attr title  "packets passed up, count"
scalar scenarioPRJP1.node[21].udp 	rcvdPk:count 	178
attr interpolationmode  none
attr source  rcvdPk
attr title  "packets received, count"
scalar scenarioPRJP1.node[21].udp 	rcvdPk:sum(packetBytes) 	92560
attr interpolationmode  none
attr source  rcvdPk
attr title  "packets received, sum(packetBytes)"
scalar scenarioPRJP1.node[21].udp 	sentPk:count 	2596
attr interpolationmode  none
attr source  sentPk
attr title  "packets sent, count"
scalar scenarioPRJP1.node[21].udp 	sentPk:sum(packetBytes) 	1349920
attr interpolationmode  none
attr source  sentPk
attr title  "packets sent, sum(packetBytes)"
scalar scenarioPRJP1.node[21].networkLayer.arp 	failedARPResolution:count 	6
attr title  "ARP failed resolutions, count"
scalar scenarioPRJP1.node[21].networkLayer.arp 	completedARPResolution:count 	355
attr title  "ARP completed resolutions, count"
scalar scenarioPRJP1.node[21].networkLayer.arp 	initiatedARPResolution:count 	65
attr title  "ARP initiated resolutions, count"
scalar scenarioPRJP1.node[21].networkLayer.arp 	sentReply:count 	49
attr title  "ARP replies sent, count"
scalar scenarioPRJP1.node[21].networkLayer.arp 	sentReq:count 	98
attr title  "ARP request sent, count"
scalar scenarioPRJP1.node[21].mobility 	startTime 	2.5
scalar scenarioPRJP1.node[21].mobility 	totalTime 	947.5
scalar scenarioPRJP1.node[21].mobility 	stopTime 	950
scalar scenarioPRJP1.node[21].mobility 	minSpeed 	2.4754379655631e-13
scalar scenarioPRJP1.node[21].mobility 	maxSpeed 	19.436346846526
scalar scenarioPRJP1.node[21].mobility 	totalDistance 	8678.1336410499
scalar scenarioPRJP1.node[21].mobility 	totalCO2Emission 	2529.7008081274
scalar scenarioPRJP1.node[21].wlan.mgmt 	dataQueueLen:max 	1
attr interpolationmode  sample-hold
attr title  "data queue length, max"
scalar scenarioPRJP1.node[21].wlan.mgmt 	dataQueueLen:timeavg 	0
attr interpolationmode  sample-hold
attr title  "data queue length, timeavg"
scalar scenarioPRJP1.node[21].wlan.mgmt 	dropPkByQueue:count 	0
attr interpolationmode  none
attr source  dropPkByQueue
attr title  "packets dropped by queue, count"
scalar scenarioPRJP1.node[21].wlan.mgmt 	dropPkByQueue:sum(packetBytes) 	0
attr interpolationmode  none
attr source  dropPkByQueue
attr title  "packets dropped by queue, sum(packetBytes)"
scalar scenarioPRJP1.node[21].wlan.mac 	"number of received packets" 	1588
scalar scenarioPRJP1.node[21].wlan.mac 	"number of collisions" 	4968
scalar scenarioPRJP1.node[21].wlan.mac 	"number of internal collisions" 	1
scalar scenarioPRJP1.node[21].wlan.mac 	"number of retry for AC 0" 	2416
scalar scenarioPRJP1.node[21].wlan.mac 	"number of retry for AC 1" 	84
scalar scenarioPRJP1.node[21].wlan.mac 	"number of retry for AC 2" 	0
scalar scenarioPRJP1.node[21].wlan.mac 	"number of retry for AC 3" 	0
scalar scenarioPRJP1.node[21].wlan.mac 	"sent and received bits" 	25645728
scalar scenarioPRJP1.node[21].wlan.mac 	"sent packet within AC 0" 	644
scalar scenarioPRJP1.node[21].wlan.mac 	"sent packet within AC 1" 	45
scalar scenarioPRJP1.node[21].wlan.mac 	"sent packet within AC 2" 	0
scalar scenarioPRJP1.node[21].wlan.mac 	"sent packet within AC 3" 	0
scalar scenarioPRJP1.node[21].wlan.mac 	"sent in TXOP " 	0
scalar scenarioPRJP1.node[21].wlan.mac 	"sentWithoutRetry AC 0" 	606
scalar scenarioPRJP1.node[21].wlan.mac 	"sentWithoutRetry AC 1" 	42
scalar scenarioPRJP1.node[21].wlan.mac 	"sentWithoutRetry AC 2" 	0
scalar scenarioPRJP1.node[21].wlan.mac 	"sentWithoutRetry AC 3" 	0
scalar scenarioPRJP1.node[21].wlan.mac 	"numGivenUp AC 0" 	386
scalar scenarioPRJP1.node[21].wlan.mac 	"numGivenUp AC 1" 	13
scalar scenarioPRJP1.node[21].wlan.mac 	"numGivenUp AC 2" 	0
scalar scenarioPRJP1.node[21].wlan.mac 	"numGivenUp AC 3" 	0
scalar scenarioPRJP1.node[21].wlan.mac 	"numDropped AC 0" 	0
scalar scenarioPRJP1.node[21].wlan.mac 	"numDropped AC 1" 	0
scalar scenarioPRJP1.node[21].wlan.mac 	"numDropped AC 2" 	0
scalar scenarioPRJP1.node[21].wlan.mac 	"numDropped AC 3" 	0
scalar scenarioPRJP1.node[21].wlan.mac 	rcvdPkFromLL:count 	36112
attr interpolationmode  none
attr source  packetReceivedFromLower
attr title  "packets received from lower layer, count"
scalar scenarioPRJP1.node[21].wlan.mac 	rcvdPkFromLL:sum(packetBytes) 	21304250
attr interpolationmode  none
attr source  packetReceivedFromLower
attr title  "packets received from lower layer, sum(packetBytes)"
scalar scenarioPRJP1.node[21].wlan.mac 	sentDownPk:count 	7957
attr interpolationmode  none
attr source  packetSentToLower
attr title  "packets sent to lower layer, count"
scalar scenarioPRJP1.node[21].wlan.mac 	sentDownPk:sum(packetBytes) 	4756552
attr interpolationmode  none
attr source  packetSentToLower
attr title  "packets sent to lower layer, sum(packetBytes)"
scalar scenarioPRJP1.node[21].wlan.mac 	rcvdPkFromHL:count 	3870
attr interpolationmode  none
attr source  packetReceivedFromUpper
attr title  "packets received from higher layer, count"
scalar scenarioPRJP1.node[21].wlan.mac 	rcvdPkFromHL:sum(packetBytes) 	3416448
attr interpolationmode  none
attr source  packetReceivedFromUpper
attr title  "packets received from higher layer, sum(packetBytes)"
scalar scenarioPRJP1.node[21].wlan.mac 	passedUpPk:count 	12653
attr interpolationmode  none
attr source  packetSentToUpper
attr title  "packets passed to higher layer, count"
scalar scenarioPRJP1.node[21].wlan.mac 	passedUpPk:sum(packetBytes) 	12501000
attr interpolationmode  none
attr source  packetSentToUpper
attr title  "packets passed to higher layer, sum(packetBytes)"
statistic scenarioPRJP1.node[21].wlan.radio 	radioChannel:histogram
field count 1
field mean 3
field stddev nan
field sum 3
field sqrsum 9
field min 3
field max 3
attr interpolationmode  sample-hold
attr source  radioChannelChanged
attr title  "Radio channel, histogram"
bin	-INF	0
bin	2	0
bin	3	1
bin	4	0
scalar scenarioPRJP1.node[21].wlan.radio 	transmissionState:count 	31828
attr interpolationmode  sample-hold
attr source  transmissionStateChanged
attr title  "Radio transmission state, count"
scalar scenarioPRJP1.node[21].wlan.radio 	receptionState:count 	88658
attr interpolationmode  sample-hold
attr source  receptionStateChanged
attr title  "Radio reception state, count"
scalar scenarioPRJP1.node[21].wlan.radio 	radioMode:count 	15916
attr interpolationmode  sample-hold
attr source  radioModeChanged
attr title  "Radio mode, count"
statistic scenarioPRJP1.node[21].wlan.radio 	symbolErrorRate:histogram
field count 0
field mean nan
field stddev nan
field sum 0
field sqrsum 0
field min nan
field max nan
attr source  symbolErrorRate
attr title  "Symbol error rate, histogram"
bin	-INF	0
bin	-0.5	0
bin	-0.46666666666667	0
bin	-0.43333333333333	0
bin	-0.4	0
bin	-0.36666666666667	0
bin	-0.33333333333333	0
bin	-0.3	0
bin	-0.26666666666667	0
bin	-0.23333333333333	0
bin	-0.2	0
bin	-0.16666666666667	0
bin	-0.13333333333333	0
bin	-0.1	0
bin	-0.066666666666667	0
bin	-0.033333333333333	0
bin	0	0
bin	0.033333333333333	0
bin	0.066666666666667	0
bin	0.1	0
bin	0.13333333333333	0
bin	0.16666666666667	0
bin	0.2	0
bin	0.23333333333333	0
bin	0.26666666666667	0
bin	0.3	0
bin	0.33333333333333	0
bin	0.36666666666667	0
bin	0.4	0
bin	0.43333333333333	0
bin	0.46666666666667	0
bin	0.5	0
statistic scenarioPRJP1.node[21].wlan.radio 	bitErrorRate:histogram
field count 0
field mean nan
field stddev nan
[...]
statistic scenarioPRJP1.node[56].wlan.radio 	radioChannel:histogram
field count 1
field mean 3
field stddev nan
field sum 3
field sqrsum 9
field min 3
field max 3
attr interpolationmode  sample-hold
attr source  radioChannelChanged
attr title  "Radio channel, histogram"
bin	-INF	0
bin	2	0
bin	3	1
bin	4	0
scalar scenarioPRJP1.node[56].wlan.radio 	transmissionState:count 	25344
attr interpolationmode  sample-hold
attr source  transmissionStateChanged
attr title  "Radio transmission state, count"
scalar scenarioPRJP1.node[56].wlan.radio 	receptionState:count 	77067
attr interpolationmode  sample-hold
attr source  receptionStateChanged
attr title  "Radio reception state, count"
scalar scenarioPRJP1.node[56].wlan.radio 	radioMode:count 	12674
attr interpolationmode  sample-hold
attr source  radioModeChanged
attr title  "Radio mode, count"
statistic scenarioPRJP1.node[56].wlan.radio 	symbolErrorRate:histogram
field count 0
field mean nan
field stddev nan
field sum 0
field sqrsum 0
field min nan
field max nan
attr source  symbolErrorRate
attr title  "Symbol error rate, histogram"
bin	-INF	0
bin	-0.5	0
bin	-0.46666666666667	0
bin	-0.43333333333333	0
bin	-0.4	0
bin	-0.36666666666667	0
bin	-0.33333333333333	0
bin	-0.3	0
bin	-0.26666666666667	0
bin	-0.23333333333333	0
bin	-0.2	0
bin	-0.16666666666667	0
bin	-0.13333333333333	0
bin	-0.1	0
bin	-0.066666666666667	0
bin	-0.033333333333333	0
bin	0	0
bin	0.033333333333333	0
bin	0.066666666666667	0
bin	0.1	0
bin	0.13333333333333	0
bin	0.16666666666667	0
bin	0.2	0
bin	0.23333333333333	0
bin	0.26666666666667	0
bin	0.3	0
bin	0.33333333333333	0
bin	0.36666666666667	0
bin	0.4	0
bin	0.43333333333333	0
bin	0.46666666666667	0
bin	0.5	0
statistic scenarioPRJP1.node[56].wlan.radio 	bitErrorRate:histogram
field count 0
field mean nan
field stddev nan
field sum 0
field sqrsum 0
field min nan
field max nan
attr source  bitErrorRate
attr title  "Bit error rate, histogram"
bin	-INF	0
bin	-0.5	0
bin	-0.46666666666667	0
bin	-0.43333333333333	0
bin	-0.4	0
bin	-0.36666666666667	0
bin	-0.33333333333333	0
bin	-0.3	0
bin	-0.26666666666667	0
bin	-0.23333333333333	0
bin	-0.2	0
bin	-0.16666666666667	0
bin	-0.13333333333333	0
bin	-0.1	0
bin	-0.066666666666667	0
bin	-0.033333333333333	0
bin	0	0
bin	0.033333333333333	0
bin	0.066666666666667	0
bin	0.1	0
bin	0.13333333333333	0
bin	0.16666666666667	0
bin	0.2	0
bin	0.23333333333333	0
bin	0.26666666666667	0
bin	0.3	0
bin	0.33333333333333	0
bin	0.36666666666667	0
bin	0.4	0
bin	0.43333333333333	0
bin	0.46666666666667	0
bin	0.5	0
statistic scenarioPRJP1.node[56].wlan.radio 	packetErrorRate:histogram
field count 31954
field mean 0.089332299499894
field stddev 0.27894735010532
field sum 2854.5242982196
field sqrsum 2741.3160453891
field min 0
field max 1
attr source  packetErrorRate
attr title  "Packet error rate, histogram"
bin	-INF	0
bin	-0.0001203842508154	0
bin	-0.00010433301737334	0
bin	-8.8281783931291e-05	0
bin	-7.2230550489238e-05	0
bin	-5.6179317047185e-05	0
bin	-4.0128083605132e-05	0
bin	-2.4076850163079e-05	0
bin	-8.0256167210265e-06	27285
bin	8.0256167210265e-06	151
bin	2.4076850163079e-05	79
bin	4.0128083605132e-05	62
bin	5.6179317047185e-05	40
bin	7.2230550489238e-05	33
bin	8.8281783931291e-05	28
bin	0.00010433301737334	28
bin	0.0001203842508154	19
bin	0.00013643548425745	12
bin	0.0001524867176995	10
bin	0.00016853795114156	13
bin	0.00018458918458361	17
bin	0.00020064041802566	16
bin	0.00021669165146772	8
bin	0.00023274288490977	15
bin	0.00024879411835182	14
bin	0.00026484535179387	4
bin	0.00028089658523593	6
bin	0.00029694781867798	11
bin	0.00031299905212003	9
bin	0.00032905028556209	5
bin	0.00034510151900414	2
bin	0.00036115275244619	4087
statistic scenarioPRJP1.node[56].wlan.radio 	minSNIR:histogram
field count 31954
field mean 12431.166215287
field stddev 70888.185934301
field sum 397225485.24329
field sqrsum 1.6550611165326e+14
field min 0.00037319269744775
field max 1294862.558326
attr source  minSNIR
attr title  "Min SNIR, histogram"
bin	-INF	0
bin	-15495.990763736	0
bin	-13429.397318081	0
bin	-11362.803872426	0
bin	-9296.2104267702	0
bin	-7229.6169811149	0
bin	-5163.0235354595	0
bin	-3096.4300898042	0
bin	-1029.8366441488	24631
bin	1036.7568015065	2573
bin	3103.3502471619	812
bin	5169.9436928172	463
bin	7236.5371384726	312
bin	9303.1305841279	272
bin	11369.724029783	218
bin	13436.317475439	191
bin	15502.910921094	148
bin	17569.504366749	172
bin	19636.097812405	89
bin	21702.69125806	112
bin	23769.284703715	77
bin	25835.878149371	92
bin	27902.471595026	50
bin	29969.065040681	54
bin	32035.658486337	58
bin	34102.251931992	55
bin	36168.845377647	13
bin	38235.438823303	83
bin	40302.032268958	46
bin	42368.625714614	49
bin	44435.219160269	35
bin	46501.812605924	1349
scalar scenarioPRJP1.node[56].lo0.lo 	droppedPkBitError:count 	0
attr interpolationmode  none
attr source  dropPkBitError
attr title  "packets dropped/bit error, count"
scalar scenarioPRJP1.node[56].lo0.lo 	droppedPkBitError:sum(packetBytes) 	0
attr interpolationmode  none
attr source  dropPkBitError
attr title  "packets dropped/bit error, sum(packetBytes)"
scalar scenarioPRJP1.node[56].lo0.lo 	rcvdPkFromHL:count 	0
attr interpolationmode  none
attr source  packetReceivedFromUpper
attr title  "packets received from higher layer, count"
scalar scenarioPRJP1.node[56].lo0.lo 	rcvdPkFromHL:sum(packetBytes) 	0
attr interpolationmode  none
attr source  packetReceivedFromUpper
attr title  "packets received from higher layer, sum(packetBytes)"
scalar scenarioPRJP1.node[56].lo0.lo 	passedUpPk:count 	0
attr interpolationmode  none
attr source  packetSentToUpper
attr title  "packets passed to higher layer, count"
scalar scenarioPRJP1.node[56].lo0.lo 	passedUpPk:sum(packetBytes) 	0
attr interpolationmode  none
attr source  packetSentToUpper
attr title  "packets passed to higher layer, sum(packetBytes)"
scalar scenarioPRJP1.node[74].app 	"Total sent" 	2626
scalar scenarioPRJP1.node[74].app 	"Total received" 	169
scalar scenarioPRJP1.node[74].app 	"Total deleted" 	0
scalar scenarioPRJP1.node[74].app 	dropPk:count 	0
attr interpolationmode  none
attr source  dropPk
attr title  "packets dropped, count"
scalar scenarioPRJP1.node[74].app 	dropPk:sum(packetBytes) 	0
attr interpolationmode  none
attr source  dropPk
attr title  "packets dropped, sum(packetBytes)"
scalar scenarioPRJP1.node[74].app 	outOfOrderPk:count 	0
attr interpolationmode  none
attr source  outOfOrderPk
attr title  "packets received out of order, count"
scalar scenarioPRJP1.node[74].app 	outOfOrderPk:sum(packetBytes) 	0
attr interpolationmode  none
attr source  outOfOrderPk
attr title  "packets received out of order, sum(packetBytes)"
scalar scenarioPRJP1.node[74].app 	rcvdPk:count 	169
attr interpolationmode  none
attr source  rcvdPk
attr title  "packets received, count"
scalar scenarioPRJP1.node[74].app 	rcvdPk:sum(packetBytes) 	86528
attr interpolationmode  none
attr source  rcvdPk
attr title  "packets received, sum(packetBytes)"
statistic scenarioPRJP1.node[74].app 	endToEndDelay:histogram
field count 169
field mean 0.047688697749959
field stddev 0.21904397559803
field sum 8.059389919743
field sqrsum 8.4450260352246
field min 0.000945022687
field max 2.00223167406
attr interpolationmode  none
attr source  messageAge(rcvdPk)
attr title  "delay, histogram"
attr unit  s
bin	-INF	0
bin	-0.9996983029995	0
bin	-0.86627919290797	0
bin	-0.73286008281643	0
bin	-0.5994409727249	0
bin	-0.46602186263337	0
bin	-0.33260275254183	0
bin	-0.1991836424503	0
bin	-0.065764532358767	162
bin	0.067654577732767	2
bin	0.2010736878243	0
bin	0.33449279791583	0
bin	0.46791190800737	0
bin	0.6013310180989	0
bin	0.73475012819043	0
bin	0.86816923828197	0
bin	1.0015883483735	4
bin	1.135007458465	0
bin	1.2684265685566	0
bin	1.4018456786481	0
bin	1.5352647887396	0
bin	1.6686838988312	0
bin	1.8021030089227	0
bin	1.9355221190142	1
bin	2.0689412291058	0
bin	2.2023603391973	0
bin	2.3357794492888	0
bin	2.4691985593804	0
bin	2.6026176694719	0
bin	2.7360367795634	0
bin	2.869455889655	0
bin	3.0028749997465	0
scalar scenarioPRJP1.node[74].app 	sentPk:count 	2626
attr interpolationmode  none
attr source  sentPk
attr title  "packets sent, count"
scalar scenarioPRJP1.node[74].app 	sentPk:sum(packetBytes) 	1344512
attr interpolationmode  none
attr source  sentPk
attr title  "packets sent, sum(packetBytes)"
scalar scenarioPRJP1.node[74].udp 	droppedPkBadChecksum:count 	0
attr interpolationmode  none
attr title  "packets dropped (checksum error), count"
scalar scenarioPRJP1.node[74].udp 	droppedPkWrongPort:count 	0
attr interpolationmode  none
attr title  "packets dropped (wrong port), count"
scalar scenarioPRJP1.node[74].udp 	passedUpPk:count 	169
attr interpolationmode  none
attr title  "packets passed up, count"
scalar scenarioPRJP1.node[74].udp 	rcvdPk:count 	169
attr interpolationmode  none
attr source  rcvdPk
attr title  "packets received, count"
scalar scenarioPRJP1.node[74].udp 	rcvdPk:sum(packetBytes) 	87880
attr interpolationmode  none
attr source  rcvdPk
attr title  "packets received, sum(packetBytes)"
scalar scenarioPRJP1.node[74].udp 	sentPk:count 	2626
attr interpolationmode  none
attr source  sentPk
attr title  "packets sent, count"
scalar scenarioPRJP1.node[74].udp 	sentPk:sum(packetBytes) 	1365520
attr interpolationmode  none
attr source  sentPk
attr title  "packets sent, sum(packetBytes)"
scalar scenarioPRJP1.node[74].networkLayer.arp 	failedARPResolution:count 	1
attr title  "ARP failed resolutions, count"
scalar scenarioPRJP1.node[74].networkLayer.arp 	completedARPResolution:count 	382
attr title  "ARP completed resolutions, count"
scalar scenarioPRJP1.node[74].networkLayer.arp 	initiatedARPResolution:count 	43
attr title  "ARP initiated resolutions, count"
scalar scenarioPRJP1.node[74].networkLayer.arp 	sentReply:count 	52
attr title  "ARP replies sent, count"
scalar scenarioPRJP1.node[74].networkLayer.arp 	sentReq:count 	60
attr title  "ARP request sent, count"
scalar scenarioPRJP1.node[74].mobility 	startTime 	7.4
scalar scenarioPRJP1.node[74].mobility 	totalTime 	942.6
scalar scenarioPRJP1.node[74].mobility 	stopTime 	950
scalar scenarioPRJP1.node[74].mobility 	minSpeed 	2.4754909637333e-13
scalar scenarioPRJP1.node[74].mobility 	maxSpeed 	18.785537570036
scalar scenarioPRJP1.node[74].mobility 	totalDistance 	9350.3141200905
scalar scenarioPRJP1.node[74].mobility 	totalCO2Emission 	2615.3067450481
scalar scenarioPRJP1.node[74].wlan.mgmt 	dataQueueLen:max 	1
attr interpolationmode  sample-hold
attr title  "data queue length, max"
scalar scenarioPRJP1.node[74].wlan.mgmt 	dataQueueLen:timeavg 	0
attr interpolationmode  sample-hold
attr title  "data queue length, timeavg"
scalar scenarioPRJP1.node[74].wlan.mgmt 	dropPkByQueue:count 	0
attr interpolationmode  none
attr source  dropPkByQueue
attr title  "packets dropped by queue, count"
scalar scenarioPRJP1.node[74].wlan.mgmt 	dropPkByQueue:sum(packetBytes) 	0
attr interpolationmode  none
attr source  dropPkByQueue
attr title  "packets dropped by queue, sum(packetBytes)"
scalar scenarioPRJP1.node[74].wlan.mac 	"number of received packets" 	1660
scalar scenarioPRJP1.node[74].wlan.mac 	"number of collisions" 	3437
scalar scenarioPRJP1.node[74].wlan.mac 	"number of internal collisions" 	2
scalar scenarioPRJP1.node[74].wlan.mac 	"number of retry for AC 0" 	2097
scalar scenarioPRJP1.node[74].wlan.mac 	"number of retry for AC 1" 	30
scalar scenarioPRJP1.node[74].wlan.mac 	"number of retry for AC 2" 	0
scalar scenarioPRJP1.node[74].wlan.mac 	"number of retry for AC 3" 	0
scalar scenarioPRJP1.node[74].wlan.mac 	"sent and received bits" 	24497568
scalar scenarioPRJP1.node[74].wlan.mac 	"sent packet within AC 0" 	846
scalar scenarioPRJP1.node[74].wlan.mac 	"sent packet within AC 1" 	40
scalar scenarioPRJP1.node[74].wlan.mac 	"sent packet within AC 2" 	0
scalar scenarioPRJP1.node[74].wlan.mac 	"sent packet within AC 3" 	0
scalar scenarioPRJP1.node[74].wlan.mac 	"sent in TXOP " 	0
scalar scenarioPRJP1.node[74].wlan.mac 	"sentWithoutRetry AC 0" 	800
scalar scenarioPRJP1.node[74].wlan.mac 	"sentWithoutRetry AC 1" 	40
scalar scenarioPRJP1.node[74].wlan.mac 	"sentWithoutRetry AC 2" 	0
scalar scenarioPRJP1.node[74].wlan.mac 	"sentWithoutRetry AC 3" 	0
scalar scenarioPRJP1.node[74].wlan.mac 	"numGivenUp AC 0" 	334
scalar scenarioPRJP1.node[74].wlan.mac 	"numGivenUp AC 1" 	5
scalar scenarioPRJP1.node[74].wlan.mac 	"numGivenUp AC 2" 	0
scalar scenarioPRJP1.node[74].wlan.mac 	"numGivenUp AC 3" 	0
scalar scenarioPRJP1.node[74].wlan.mac 	"numDropped AC 0" 	0
scalar scenarioPRJP1.node[74].wlan.mac 	"numDropped AC 1" 	0
scalar scenarioPRJP1.node[74].wlan.mac 	"numDropped AC 2" 	0
scalar scenarioPRJP1.node[74].wlan.mac 	"numDropped AC 3" 	0
scalar scenarioPRJP1.node[74].wlan.mac 	rcvdPkFromLL:count 	34977
attr interpolationmode  none
attr source  packetReceivedFromLower
attr title  "packets received from lower layer, count"
scalar scenarioPRJP1.node[74].wlan.mac 	rcvdPkFromLL:sum(packetBytes) 	20726878
attr interpolationmode  none
attr source  packetReceivedFromLower
attr title  "packets received from lower layer, sum(packetBytes)"
scalar scenarioPRJP1.node[74].wlan.mac 	sentDownPk:count 	7505
attr interpolationmode  none
attr source  packetSentToLower
attr title  "packets sent to lower layer, count"
scalar scenarioPRJP1.node[74].wlan.mac 	sentDownPk:sum(packetBytes) 	4390992
attr interpolationmode  none
attr source  packetSentToLower
attr title  "packets sent to lower layer, sum(packetBytes)"
scalar scenarioPRJP1.node[74].wlan.mac 	rcvdPkFromHL:count 	3720
attr interpolationmode  none
attr source  packetReceivedFromUpper
attr title  "packets received from higher layer, count"
scalar scenarioPRJP1.node[74].wlan.mac 	rcvdPkFromHL:sum(packetBytes) 	3241216
attr interpolationmode  none
attr source  packetReceivedFromUpper
attr title  "packets received from higher layer, sum(packetBytes)"
scalar scenarioPRJP1.node[74].wlan.mac 	passedUpPk:count 	12994
attr interpolationmode  none
attr source  packetSentToUpper
attr title  "packets passed to higher layer, count"
scalar scenarioPRJP1.node[74].wlan.mac 	passedUpPk:sum(packetBytes) 	12794628
attr interpolationmode  none
attr source  packetSentToUpper
attr title  "packets passed to higher layer, sum(packetBytes)"
statistic scenarioPRJP1.node[74].wlan.radio 	radioChannel:histogram
field count 1
field mean 3
field stddev nan
field sum 3
field sqrsum 9
field min 3
field max 3
attr interpolationmode  sample-hold
attr source  radioChannelChanged
attr title  "Radio channel, histogram"
bin	-INF	0
bin	2	0
bin	3	1
bin	4	0
scalar scenarioPRJP1.node[74].wlan.radio 	transmissionState:count 	30020
attr interpolationmode  sample-hold
attr source  transmissionStateChanged
attr title  "Radio transmission state, count"
scalar scenarioPRJP1.node[74].wlan.radio 	receptionState:count 	85288
attr interpolationmode  sample-hold
attr source  receptionStateChanged
attr title  "Radio reception state, count"
scalar scenarioPRJP1.node[74].wlan.radio 	radioMode:count 	15012
attr interpolationmode  sample-hold
attr source  radioModeChanged
attr title  "Radio mode, count"
statistic scenarioPRJP1.node[74].wlan.radio 	symbolErrorRate:histogram
field count 0
field mean nan
field stddev nan
field sum 0
field sqrsum 0
field min nan
field max nan
attr source  symbolErrorRate
attr title  "Symbol error rate, histogram"
bin	-INF	0
bin	-0.5	0
bin	-0.46666666666667	0
bin	-0.43333333333333	0
bin	-0.4	0
bin	-0.36666666666667	0
bin	-0.33333333333333	0
bin	-0.3	0
bin	-0.26666666666667	0
bin	-0.23333333333333	0
bin	-0.2	0
bin	-0.16666666666667	0
bin	-0.13333333333333	0
bin	-0.1	0
bin	-0.066666666666667	0
bin	-0.033333333333333	0
bin	0	0
bin	0.033333333333333	0
bin	0.066666666666667	0
bin	0.1	0
bin	0.13333333333333	0
bin	0.16666666666667	0
bin	0.2	0
bin	0.23333333333333	0
bin	0.26666666666667	0
bin	0.3	0
bin	0.33333333333333	0
bin	0.36666666666667	0
bin	0.4	0
bin	0.43333333333333	0
bin	0.46666666666667	0
bin	0.5	0
statistic scenarioPRJP1.node[74].wlan.radio 	bitErrorRate:histogram
field count 0
field mean nan
field stddev nan
field sum 0
field sqrsum 0
field min nan
field max nan
attr source  bitErrorRate
attr title  "Bit error rate, histogram"
bin	-INF	0
bin	-0.5	0
bin	-0.46666666666667	0
bin	-0.43333333333333	0
bin	-0.4	0
bin	-0.36666666666667	0
bin	-0.33333333333333	0
bin	-0.3	0
bin	-0.26666666666667	0
bin	-0.23333333333333	0
bin	-0.2	0
bin	-0.16666666666667	0
bin	-0.13333333333333	0
bin	-0.1	0
bin	-0.066666666666667	0
bin	-0.033333333333333	0
bin	0	0
bin	0.033333333333333	0
bin	0.066666666666667	0
bin	0.1	0
bin	0.13333333333333	0
bin	0.16666666666667	0
bin	0.2	0
bin	0.23333333333333	0
bin	0.26666666666667	0
bin	0.3	0
bin	0.33333333333333	0
bin	0.36666666666667	0
bin	0.4	0
bin	0.43333333333333	0
bin	0.46666666666667	0
bin	0.5	0
statistic scenarioPRJP1.node[74].wlan.radio 	packetErrorRate:histogram
field count 34977
field mean 0.091093865606427
field stddev 0.28006618898314
field sum 3186.190137316
field sqrsum 3033.6573438839
field min 0
field max 1
attr source  packetErrorRate
attr title  "Packet error rate, histogram"
bin	-INF	0
bin	-0.13886038243293	0
bin	-0.1203456647752	0
bin	-0.10183094711748	0
bin	-0.083316229459755	0
bin	-0.064801511802032	0
bin	-0.046286794144309	0
bin	-0.027772076486585	0
bin	-0.0092573588288617	30888
bin	0.0092573588288617	230
bin	0.027772076486585	129
bin	0.046286794144309	69
bin	0.064801511802032	53
bin	0.083316229459755	55
bin	0.10183094711748	40
bin	0.1203456647752	28
bin	0.13886038243293	31
bin	0.15737510009065	27
bin	0.17588981774837	19
bin	0.1944045354061	24
bin	0.21291925306382	19
bin	0.23143397072154	28
bin	0.24994868837927	25
bin	0.26846340603699	17
bin	0.28697812369471	16
bin	0.30549284135244	16
bin	0.32400755901016	25
bin	0.34252227666788	9
bin	0.36103699432561	12
bin	0.37955171198333	13
bin	0.39806642964105	13
bin	0.41658114729878	3191
statistic scenarioPRJP1.node[74].wlan.radio 	minSNIR:histogram
field count 34977
field mean 10705.048523787
field stddev 70339.012417154
field sum 374430482.21649
field sqrsum 1.770547380146e+14
field min 0.0029729570603597
field max 3261011.1484469
attr source  minSNIR
attr title  "Min SNIR, histogram"
bin	-INF	0
bin	-19000.503773538	0
bin	-16466.801803657	0
bin	-13933.099833776	0
bin	-11399.397863895	0
bin	-8865.6958940139	0
bin	-6331.993924133	0
bin	-3798.291954252	0
bin	-1264.5899843711	28061
bin	1269.1119855098	2336
bin	3802.8139553908	716
bin	6336.5159252717	516
bin	8870.2178951526	328
bin	11403.919865034	328
bin	13937.621834915	286
bin	16471.323804795	188
bin	19005.025774676	152
bin	21538.727744557	157
bin	24072.429714438	128
bin	26606.131684319	71
bin	29139.8336542	50
bin	31673.535624081	49
bin	34207.237593962	80
bin	36740.939563843	66
bin	39274.641533724	32
bin	41808.343503605	149
bin	44342.045473486	44
bin	46875.747443367	36
bin	49409.449413248	31
bin	51943.151383129	28
bin	54476.853353009	56
bin	57010.55532289	1089
scalar scenarioPRJP1.node[74].lo0.lo 	droppedPkBitError:count 	0
attr interpolationmode  none
attr source  dropPkBitError
attr title  "packets dropped/bit error, count"
scalar scenarioPRJP1.node[74].lo0.lo 	droppedPkBitError:sum(packetBytes) 	0
attr interpolationmode  none
attr source  dropPkBitError
attr title  "packets dropped/bit error, sum(packetBytes)"
scalar scenarioPRJP1.node[74].lo0.lo 	rcvdPkFromHL:count 	5
attr interpolationmode  none
attr source  packetReceivedFromUpper
attr title  "packets received from higher layer, count"
scalar scenarioPRJP1.node[74].lo0.lo 	rcvdPkFromHL:sum(packetBytes) 	280
attr interpolationmode  none
attr source  packetReceivedFromUpper
attr title  "packets received from higher layer, sum(packetBytes)"
scalar scenarioPRJP1.node[74].lo0.lo 	passedUpPk:count 	5
attr interpolationmode  none
attr source  packetSentToUpper
attr title  "packets passed to higher layer, count"
scalar scenarioPRJP1.node[74].lo0.lo 	passedUpPk:sum(packetBytes) 	280
attr interpolationmode  none
attr source  packetSentToUpper
attr title  "packets passed to higher layer, sum(packetBytes)"
