version 2
run OLSR-ETX-FS-50n-2-20150729-16:17:12-8823
attr configname OLSR-ETX-FS-50n
attr datetime 20150729-16:17:12
attr experiment OLSR-ETX-FS-50n
attr inifile omnetpp.ini
attr iterationvars ""
attr iterationvars2 $repetition=2
attr measurement ""
attr network Prj_Part1_propag.scenarioPRJP1
attr processid 8823
attr repetition 2
attr replication #2
attr resultdir results
attr runnumber 2
attr seedset 2

scalar scenarioPRJP1.radioMedium.propagation 	"Arrival computation count" 	12712161
scalar scenarioPRJP1.radioMedium 	"transmission count" 	259472
scalar scenarioPRJP1.radioMedium 	"radio frame send count" 	12712143
scalar scenarioPRJP1.radioMedium 	"reception computation count" 	12637622
scalar scenarioPRJP1.radioMedium 	"interference computation count" 	36359438
scalar scenarioPRJP1.radioMedium 	"reception decision computation count" 	867945
scalar scenarioPRJP1.radioMedium 	"listening decision computation count" 	23003642
scalar scenarioPRJP1.radioMedium 	"reception cache hit" 	81.341249911727
attr unit  %
scalar scenarioPRJP1.radioMedium 	"interference cache hit" 	50
attr unit  %
scalar scenarioPRJP1.radioMedium 	"noise cache hit" 	0
attr unit  %
scalar scenarioPRJP1.radioMedium 	"snir cache hit" 	0
attr unit  %
scalar scenarioPRJP1.radioMedium 	"reception decision cache hit" 	0
attr unit  %
scalar scenarioPRJP1.node[0].app 	"Total sent" 	2604
scalar scenarioPRJP1.node[0].app 	"Total received" 	158
scalar scenarioPRJP1.node[0].app 	"Total deleted" 	0
scalar scenarioPRJP1.node[0].app 	dropPk:count 	0
attr interpolationmode  none
attr source  dropPk
attr title  "packets dropped, count"
scalar scenarioPRJP1.node[0].app 	dropPk:sum(packetBytes) 	0
attr interpolationmode  none
attr source  dropPk
attr title  "packets dropped, sum(packetBytes)"
scalar scenarioPRJP1.node[0].app 	outOfOrderPk:count 	3
attr interpolationmode  none
attr source  outOfOrderPk
attr title  "packets received out of order, count"
scalar scenarioPRJP1.node[0].app 	outOfOrderPk:sum(packetBytes) 	1536
attr interpolationmode  none
attr source  outOfOrderPk
attr title  "packets received out of order, sum(packetBytes)"
scalar scenarioPRJP1.node[0].app 	rcvdPk:count 	158
attr interpolationmode  none
attr source  rcvdPk
attr title  "packets received, count"
scalar scenarioPRJP1.node[0].app 	rcvdPk:sum(packetBytes) 	80896
attr interpolationmode  none
attr source  rcvdPk
attr title  "packets received, sum(packetBytes)"
statistic scenarioPRJP1.node[0].app 	endToEndDelay:histogram
field count 158
field mean 0.037486114211614
field stddev 0.19898464969492
field sum 5.922806045435
field sqrsum 6.4384208417037
field min 0.000945022686
field max 2.001789594248
attr interpolationmode  none
attr source  messageAge(rcvdPk)
attr title  "delay, histogram"
attr unit  s
bin	-INF	0
bin	-0.999477111307	0
bin	-0.866087479949	0
bin	-0.732697848591	0
bin	-0.599308217233	0
bin	-0.465918585875	0
bin	-0.332528954517	0
bin	-0.199139323159	0
bin	-0.065749691801	153
bin	0.067639939557	0
bin	0.201029570915	1
bin	0.334419202273	0
bin	0.467808833631	1
bin	0.601198464989	0
bin	0.734588096347	0
bin	0.867977727705	0
bin	1.001367359063	2
bin	1.134756990421	0
bin	1.268146621779	0
bin	1.401536253137	0
bin	1.534925884495	0
bin	1.668315515853	0
bin	1.801705147211	0
bin	1.935094778569	1
bin	2.068484409927	0
bin	2.201874041285	0
bin	2.335263672643	0
bin	2.468653304001	0
bin	2.602042935359	0
bin	2.735432566717	0
bin	2.868822198075	0
bin	3.002211829433	0
scalar scenarioPRJP1.node[0].app 	sentPk:count 	2604
attr interpolationmode  none
attr source  sentPk
attr title  "packets sent, count"
scalar scenarioPRJP1.node[0].app 	sentPk:sum(packetBytes) 	1333248
attr interpolationmode  none
attr source  sentPk
attr title  "packets sent, sum(packetBytes)"
scalar scenarioPRJP1.node[0].udp 	droppedPkBadChecksum:count 	0
attr interpolationmode  none
attr title  "packets dropped (checksum error), count"
scalar scenarioPRJP1.node[0].udp 	droppedPkWrongPort:count 	0
attr interpolationmode  none
attr title  "packets dropped (wrong port), count"
scalar scenarioPRJP1.node[0].udp 	passedUpPk:count 	161
attr interpolationmode  none
attr title  "packets passed up, count"
scalar scenarioPRJP1.node[0].udp 	rcvdPk:count 	161
attr interpolationmode  none
attr source  rcvdPk
attr title  "packets received, count"
scalar scenarioPRJP1.node[0].udp 	rcvdPk:sum(packetBytes) 	83720
attr interpolationmode  none
attr source  rcvdPk
attr title  "packets received, sum(packetBytes)"
scalar scenarioPRJP1.node[0].udp 	sentPk:count 	2604
attr interpolationmode  none
attr source  sentPk
attr title  "packets sent, count"
scalar scenarioPRJP1.node[0].udp 	sentPk:sum(packetBytes) 	1354080
attr interpolationmode  none
attr source  sentPk
attr title  "packets sent, sum(packetBytes)"
scalar scenarioPRJP1.node[0].networkLayer.arp 	failedARPResolution:count 	8
attr title  "ARP failed resolutions, count"
scalar scenarioPRJP1.node[0].networkLayer.arp 	completedARPResolution:count 	152
attr title  "ARP completed resolutions, count"
scalar scenarioPRJP1.node[0].networkLayer.arp 	initiatedARPResolution:count 	28
attr title  "ARP initiated resolutions, count"
scalar scenarioPRJP1.node[0].networkLayer.arp 	sentReply:count 	39
attr title  "ARP replies sent, count"
scalar scenarioPRJP1.node[0].networkLayer.arp 	sentReq:count 	47
attr title  "ARP request sent, count"
scalar scenarioPRJP1.node[0].mobility 	startTime 	0.1
scalar scenarioPRJP1.node[0].mobility 	totalTime 	949.9
scalar scenarioPRJP1.node[0].mobility 	stopTime 	950
scalar scenarioPRJP1.node[0].mobility 	minSpeed 	2.4754867497743e-13
scalar scenarioPRJP1.node[0].mobility 	maxSpeed 	18.826644494837
scalar scenarioPRJP1.node[0].mobility 	totalDistance 	9353.5661093418
scalar scenarioPRJP1.node[0].mobility 	totalCO2Emission 	2626.8936217509
scalar scenarioPRJP1.node[0].wlan.mgmt 	dataQueueLen:max 	1
attr interpolationmode  sample-hold
attr title  "data queue length, max"
scalar scenarioPRJP1.node[0].wlan.mgmt 	dataQueueLen:timeavg 	0
attr interpolationmode  sample-hold
attr title  "data queue length, timeavg"
scalar scenarioPRJP1.node[0].wlan.mgmt 	dropPkByQueue:count 	0
attr interpolationmode  none
attr source  dropPkByQueue
attr title  "packets dropped by queue, count"
scalar scenarioPRJP1.node[0].wlan.mgmt 	dropPkByQueue:sum(packetBytes) 	0
attr interpolationmode  none
attr source  dropPkByQueue
attr title  "packets dropped by queue, sum(packetBytes)"
scalar scenarioPRJP1.node[0].wlan.mac 	"number of received packets" 	1063
scalar scenarioPRJP1.node[0].wlan.mac 	"number of collisions" 	1218
scalar scenarioPRJP1.node[0].wlan.mac 	"number of internal collisions" 	0
scalar scenarioPRJP1.node[0].wlan.mac 	"number of retry for AC 0" 	1499
scalar scenarioPRJP1.node[0].wlan.mac 	"number of retry for AC 1" 	42
scalar scenarioPRJP1.node[0].wlan.mac 	"number of retry for AC 2" 	0
scalar scenarioPRJP1.node[0].wlan.mac 	"number of retry for AC 3" 	0
scalar scenarioPRJP1.node[0].wlan.mac 	"sent and received bits" 	18405440
scalar scenarioPRJP1.node[0].wlan.mac 	"sent packet within AC 0" 	271
scalar scenarioPRJP1.node[0].wlan.mac 	"sent packet within AC 1" 	14
scalar scenarioPRJP1.node[0].wlan.mac 	"sent packet within AC 2" 	0
scalar scenarioPRJP1.node[0].wlan.mac 	"sent packet within AC 3" 	0
scalar scenarioPRJP1.node[0].wlan.mac 	"sent in TXOP " 	0
scalar scenarioPRJP1.node[0].wlan.mac 	"sentWithoutRetry AC 0" 	262
scalar scenarioPRJP1.node[0].wlan.mac 	"sentWithoutRetry AC 1" 	14
scalar scenarioPRJP1.node[0].wlan.mac 	"sentWithoutRetry AC 2" 	0
scalar scenarioPRJP1.node[0].wlan.mac 	"sentWithoutRetry AC 3" 	0
scalar scenarioPRJP1.node[0].wlan.mac 	"numGivenUp AC 0" 	247
scalar scenarioPRJP1.node[0].wlan.mac 	"numGivenUp AC 1" 	7
scalar scenarioPRJP1.node[0].wlan.mac 	"numGivenUp AC 2" 	0
scalar scenarioPRJP1.node[0].wlan.mac 	"numGivenUp AC 3" 	0
scalar scenarioPRJP1.node[0].wlan.mac 	"numDropped AC 0" 	0
scalar scenarioPRJP1.node[0].wlan.mac 	"numDropped AC 1" 	0
scalar scenarioPRJP1.node[0].wlan.mac 	"numDropped AC 2" 	0
scalar scenarioPRJP1.node[0].wlan.mac 	"numDropped AC 3" 	0
scalar scenarioPRJP1.node[0].wlan.mac 	rcvdPkFromLL:count 	16292
attr interpolationmode  none
attr source  packetReceivedFromLower
attr title  "packets received from lower layer, count"
scalar scenarioPRJP1.node[0].wlan.mac 	rcvdPkFromLL:sum(packetBytes) 	9546172
attr interpolationmode  none
attr source  packetReceivedFromLower
attr title  "packets received from lower layer, sum(packetBytes)"
scalar scenarioPRJP1.node[0].wlan.mac 	sentDownPk:count 	5218
attr interpolationmode  none
attr source  packetSentToLower
attr title  "packets sent to lower layer, count"
scalar scenarioPRJP1.node[0].wlan.mac 	sentDownPk:sum(packetBytes) 	3254086
attr interpolationmode  none
attr source  packetSentToLower
attr title  "packets sent to lower layer, sum(packetBytes)"
scalar scenarioPRJP1.node[0].wlan.mac 	rcvdPkFromHL:count 	2614
attr interpolationmode  none
attr source  packetReceivedFromUpper
attr title  "packets received from higher layer, count"
scalar scenarioPRJP1.node[0].wlan.mac 	rcvdPkFromHL:sum(packetBytes) 	2433356
attr interpolationmode  none
attr source  packetReceivedFromUpper
attr title  "packets received from higher layer, sum(packetBytes)"
scalar scenarioPRJP1.node[0].wlan.mac 	passedUpPk:count 	6189
attr interpolationmode  none
attr source  packetSentToUpper
attr title  "packets passed to higher layer, count"
scalar scenarioPRJP1.node[0].wlan.mac 	passedUpPk:sum(packetBytes) 	6178204
attr interpolationmode  none
attr source  packetSentToUpper
attr title  "packets passed to higher layer, sum(packetBytes)"
statistic scenarioPRJP1.node[0].wlan.radio 	radioChannel:histogram
field count 1
field mean 3
field stddev nan
field sum 3
field sqrsum 9
field min 3
field max 3
attr interpolationmode  sample-hold
attr source  radioChannelChanged
attr title  "Radio channel, histogram"
bin	-INF	0
bin	2	0
bin	3	1
bin	4	0
scalar scenarioPRJP1.node[0].wlan.radio 	transmissionState:count 	20872
attr interpolationmode  sample-hold
attr source  transmissionStateChanged
attr title  "Radio transmission state, count"
scalar scenarioPRJP1.node[0].wlan.radio 	receptionState:count 	43112
attr interpolationmode  sample-hold
attr source  receptionStateChanged
attr title  "Radio reception state, count"
scalar scenarioPRJP1.node[0].wlan.radio 	radioMode:count 	10438
attr interpolationmode  sample-hold
attr source  radioModeChanged
attr title  "Radio mode, count"
statistic scenarioPRJP1.node[0].wlan.radio 	symbolErrorRate:histogram
field count 0
field mean nan
field stddev nan
field sum 0
field sqrsum 0
field min nan
field max nan
attr source  symbolErrorRate
attr title  "Symbol error rate, histogram"
bin	-INF	0
bin	-0.5	0
bin	-0.46666666666667	0
bin	-0.43333333333333	0
bin	-0.4	0
bin	-0.36666666666667	0
bin	-0.33333333333333	0
bin	-0.3	0
bin	-0.26666666666667	0
bin	-0.23333333333333	0
bin	-0.2	0
bin	-0.16666666666667	0
bin	-0.13333333333333	0
bin	-0.1	0
bin	-0.066666666666667	0
bin	-0.033333333333333	0
bin	0	0
bin	0.033333333333333	0
bin	0.066666666666667	0
bin	0.1	0
bin	0.13333333333333	0
bin	0.16666666666667	0
bin	0.2	0
bin	0.23333333333333	0
bin	0.26666666666667	0
bin	0.3	0
bin	0.33333333333333	0
bin	0.36666666666667	0
bin	0.4	0
bin	0.43333333333333	0
bin	0.46666666666667	0
bin	0.5	0
statistic scenarioPRJP1.node[0].wlan.radio 	bitErrorRate:histogram
field count 0
field mean nan
field stddev nan
field sum 0
field sqrsum 0
field min nan
field max nan
attr source  bitErrorRate
attr title  "Bit error rate, histogram"
bin	-INF	0
bin	-0.5	0
bin	-0.46666666666667	0
bin	-0.43333333333333	0
bin	-0.4	0
bin	-0.36666666666667	0
bin	-0.33333333333333	0
bin	-0.3	0
bin	-0.26666666666667	0
bin	-0.23333333333333	0
bin	-0.2	0
bin	-0.16666666666667	0
bin	-0.13333333333333	0
bin	-0.1	0
bin	-0.066666666666667	0
bin	-0.033333333333333	0
bin	0	0
bin	0.033333333333333	0
bin	0.066666666666667	0
bin	0.1	0
bin	0.13333333333333	0
bin	0.16666666666667	0
bin	0.2	0
bin	0.23333333333333	0
bin	0.26666666666667	0
bin	0.3	0
bin	0.33333333333333	0
bin	0.36666666666667	0
bin	0.4	0
bin	0.43333333333333	0
bin	0.46666666666667	0
bin	0.5	0
statistic scenarioPRJP1.node[0].wlan.radio 	packetErrorRate:histogram
field count 16292
field mean 0.071194003361207
field stddev 0.24976641022774
field sum 1159.8927027608
field sqrsum 1098.8630883941
field min 0
field max 1
attr source  packetErrorRate
attr title  "Packet error rate, histogram"
bin	-INF	1732
bin	-2.8430591214601e-12	0
bin	-2.4639845719321e-12	0
bin	-2.0849100224041e-12	0
bin	-1.7058354728761e-12	0
bin	-1.326760923348e-12	0
bin	-9.4768637382003e-13	0
bin	-5.6861182429202e-13	0
bin	-1.8953727476401e-13	13067
bin	1.8953727476401e-13	48
bin	5.6861182429202e-13	7
bin	9.4768637382003e-13	38
bin	1.326760923348e-12	11
bin	1.7058354728761e-12	7
bin	2.0849100224041e-12	2
bin	2.4639845719321e-12	7
bin	2.8430591214601e-12	11
bin	3.2221336709881e-12	7
bin	3.6012082205161e-12	5
bin	3.9802827700441e-12	7
bin	4.3593573195722e-12	4
bin	4.7384318691002e-12	10
bin	5.1175064186282e-12	3
bin	5.4965809681562e-12	10
bin	5.8756555176842e-12	5
bin	6.2547300672122e-12	2
bin	6.6338046167402e-12	0
bin	7.0128791662682e-12	6
bin	7.3919537157963e-12	2
bin	7.7710282653243e-12	0
bin	8.1501028148523e-12	1
bin	8.5291773643803e-12	1300
statistic scenarioPRJP1.node[0].wlan.radio 	minSNIR:histogram
field count 16292
field mean 8612.8944210869
field stddev 53924.881786419
field sum 140321275.90835
field sqrsum 48581055172122
field min 0.0074694700018267
field max 753239.71923433
attr source  minSNIR
attr title  "Min SNIR, histogram"
bin	-INF	0
bin	-12079.938996787	0
bin	-10468.390456455	0
bin	-8856.8419161238	0
bin	-7245.2933757924	0
bin	-5633.744835461	0
bin	-4022.1962951295	0
bin	-2410.6477547981	0
bin	-799.0992144667	12664
bin	812.44932586472	1218
bin	2423.9978661961	395
bin	4035.5464065276	212
bin	5647.094946859	127
bin	7258.6434871904	127
bin	8870.1920275218	141
bin	10481.740567853	108
bin	12093.289108185	148
bin	13704.837648516	57
bin	15316.386188848	64
bin	16927.934729179	61
bin	18539.48326951	84
bin	20151.031809842	37
bin	21762.580350173	20
bin	23374.128890505	34
bin	24985.677430836	32
bin	26597.225971167	20
bin	28208.774511499	16
bin	29820.32305183	25
bin	31431.871592162	16
bin	33043.420132493	5
bin	34654.968672825	7
bin	36266.517213156	674
scalar scenarioPRJP1.node[0].lo0.lo 	droppedPkBitError:count 	0
attr interpolationmode  none
attr source  dropPkBitError
attr title  "packets dropped/bit error, count"
scalar scenarioPRJP1.node[0].lo0.lo 	droppedPkBitError:sum(packetBytes) 	0
attr interpolationmode  none
attr source  dropPkBitError
attr title  "packets dropped/bit error, sum(packetBytes)"
scalar scenarioPRJP1.node[0].lo0.lo 	rcvdPkFromHL:count 	2
attr interpolationmode  none
attr source  packetReceivedFromUpper
attr title  "packets received from higher layer, count"
scalar scenarioPRJP1.node[0].lo0.lo 	rcvdPkFromHL:sum(packetBytes) 	112
attr interpolationmode  none
attr source  packetReceivedFromUpper
attr title  "packets received from higher layer, sum(packetBytes)"
scalar scenarioPRJP1.node[0].lo0.lo 	passedUpPk:count 	2
attr interpolationmode  none
attr source  packetSentToUpper
attr title  "packets passed to higher layer, count"
scalar scenarioPRJP1.node[0].lo0.lo 	passedUpPk:sum(packetBytes) 	112
attr interpolationmode  none
attr source  packetSentToUpper
attr title  "packets passed to higher layer, sum(packetBytes)"
scalar scenarioPRJP1.node[21].app 	"Total sent" 	2634
scalar scenarioPRJP1.node[21].app 	"Total received" 	150
scalar scenarioPRJP1.node[21].app 	"Total deleted" 	0
scalar scenarioPRJP1.node[21].app 	dropPk:count 	0
attr interpolationmode  none
attr source  dropPk
attr title  "packets dropped, count"
scalar scenarioPRJP1.node[21].app 	dropPk:sum(packetBytes) 	0
attr interpolationmode  none
attr source  dropPk
attr title  "packets dropped, sum(packetBytes)"
scalar scenarioPRJP1.node[21].app 	outOfOrderPk:count 	0
attr interpolationmode  none
attr source  outOfOrderPk
attr title  "packets received out of order, count"
scalar scenarioPRJP1.node[21].app 	outOfOrderPk:sum(packetBytes) 	0
attr interpolationmode  none
attr source  outOfOrderPk
attr title  "packets received out of order, sum(packetBytes)"
scalar scenarioPRJP1.node[21].app 	rcvdPk:count 	150
attr interpolationmode  none
attr source  rcvdPk
attr title  "packets received, count"
scalar scenarioPRJP1.node[21].app 	rcvdPk:sum(packetBytes) 	76800
attr interpolationmode  none
attr source  rcvdPk
attr title  "packets received, sum(packetBytes)"
statistic scenarioPRJP1.node[21].app 	endToEndDelay:histogram
field count 150
field mean 0.024498360676427
field stddev 0.1317594038072
field sum 3.674754101464
field sqrsum 2.6767459846274
field min 0.000924197409
field max 1.028546621034
attr interpolationmode  none
attr source  messageAge(rcvdPk)
attr title  "delay, histogram"
attr unit  s
bin	-INF	0
bin	-0.382754063304	0
bin	-0.33159418296787	0
bin	-0.28043430263173	0
bin	-0.2292744222956	0
bin	-0.17811454195947	0
bin	-0.12695466162333	0
bin	-0.0757947812872	0
bin	-0.024634900951067	139
bin	0.026524979385067	8
bin	0.0776848597212	0
bin	0.12884474005733	0
bin	0.18000462039347	0
bin	0.2311645007296	0
bin	0.28232438106573	0
bin	0.33348426140187	0
bin	0.384644141738	0
bin	0.43580402207413	0
bin	0.48696390241027	0
bin	0.5381237827464	0
bin	0.58928366308253	0
bin	0.64044354341867	0
bin	0.6916034237548	0
bin	0.74276330409093	1
bin	0.79392318442707	0
bin	0.8450830647632	0
bin	0.89624294509933	0
bin	0.94740282543547	0
bin	0.9985627057716	2
bin	1.0497225861077	0
bin	1.1008824664439	0
bin	1.15204234678	0
scalar scenarioPRJP1.node[21].app 	sentPk:count 	2634
attr interpolationmode  none
attr source  sentPk
attr title  "packets sent, count"
scalar scenarioPRJP1.node[21].app 	sentPk:sum(packetBytes) 	1348608
attr interpolationmode  none
attr source  sentPk
attr title  "packets sent, sum(packetBytes)"
scalar scenarioPRJP1.node[21].udp 	droppedPkBadChecksum:count 	0
attr interpolationmode  none
attr title  "packets dropped (checksum error), count"
scalar scenarioPRJP1.node[21].udp 	droppedPkWrongPort:count 	0
attr interpolationmode  none
attr title  "packets dropped (wrong port), count"
scalar scenarioPRJP1.node[21].udp 	passedUpPk:count 	150
attr interpolationmode  none
attr title  "packets passed up, count"
scalar scenarioPRJP1.node[21].udp 	rcvdPk:count 	150
attr interpolationmode  none
attr source  rcvdPk
attr title  "packets received, count"
scalar scenarioPRJP1.node[21].udp 	rcvdPk:sum(packetBytes) 	78000
attr interpolationmode  none
attr source  rcvdPk
attr title  "packets received, sum(packetBytes)"
scalar scenarioPRJP1.node[21].udp 	sentPk:count 	2634
attr interpolationmode  none
attr source  sentPk
attr title  "packets sent, count"
scalar scenarioPRJP1.node[21].udp 	sentPk:sum(packetBytes) 	1369680
attr interpolationmode  none
attr source  sentPk
attr title  "packets sent, sum(packetBytes)"
scalar scenarioPRJP1.node[21].networkLayer.arp 	failedARPResolution:count 	4
attr title  "ARP failed resolutions, count"
scalar scenarioPRJP1.node[21].networkLayer.arp 	completedARPResolution:count 	158
attr title  "ARP completed resolutions, count"
scalar scenarioPRJP1.node[21].networkLayer.arp 	initiatedARPResolution:count 	36
attr title  "ARP initiated resolutions, count"
scalar scenarioPRJP1.node[21].networkLayer.arp 	sentReply:count 	27
attr title  "ARP replies sent, count"
scalar scenarioPRJP1.node[21].networkLayer.arp 	sentReq:count 	49
attr title  "ARP request sent, count"
scalar scenarioPRJP1.node[21].mobility 	startTime 	2.5
scalar scenarioPRJP1.node[21].mobility 	totalTime 	947.5
scalar scenarioPRJP1.node[21].mobility 	stopTime 	950
scalar scenarioPRJP1.node[21].mobility 	minSpeed 	2.4756913442368e-13
scalar scenarioPRJP1.node[21].mobility 	maxSpeed 	16.695143262528
scalar scenarioPRJP1.node[21].mobility 	totalDistance 	9936.5826312612
scalar scenarioPRJP1.node[21].mobility 	totalCO2Emission 	2481.6390662703
scalar scenarioPRJP1.node[21].wlan.mgmt 	dataQueueLen:max 	0
attr interpolationmode  sample-hold
attr title  "data queue length, max"
scalar scenarioPRJP1.node[21].wlan.mgmt 	dataQueueLen:timeavg 	0
attr interpolationmode  sample-hold
attr title  "data queue length, timeavg"
scalar scenarioPRJP1.node[21].wlan.mgmt 	dropPkByQueue:count 	0
attr interpolationmode  none
attr source  dropPkByQueue
attr title  "packets dropped by queue, count"
scalar scenarioPRJP1.node[21].wlan.mgmt 	dropPkByQueue:sum(packetBytes) 	0
attr interpolationmode  none
attr source  dropPkByQueue
attr title  "packets dropped by queue, sum(packetBytes)"
scalar scenarioPRJP1.node[21].wlan.mac 	"number of received packets" 	873
scalar scenarioPRJP1.node[21].wlan.mac 	"number of collisions" 	1115
scalar scenarioPRJP1.node[21].wlan.mac 	"number of internal collisions" 	0
scalar scenarioPRJP1.node[21].wlan.mac 	"number of retry for AC 0" 	1404
scalar scenarioPRJP1.node[21].wlan.mac 	"number of retry for AC 1" 	18
scalar scenarioPRJP1.node[21].wlan.mac 	"number of retry for AC 2" 	0
scalar scenarioPRJP1.node[21].wlan.mac 	"number of retry for AC 3" 	0
scalar scenarioPRJP1.node[21].wlan.mac 	"sent and received bits" 	18053280
scalar scenarioPRJP1.node[21].wlan.mac 	"sent packet within AC 0" 	209
scalar scenarioPRJP1.node[21].wlan.mac 	"sent packet within AC 1" 	14
scalar scenarioPRJP1.node[21].wlan.mac 	"sent packet within AC 2" 	0
scalar scenarioPRJP1.node[21].wlan.mac 	"sent packet within AC 3" 	0
scalar scenarioPRJP1.node[21].wlan.mac 	"sent in TXOP " 	0
scalar scenarioPRJP1.node[21].wlan.mac 	"sentWithoutRetry AC 0" 	201
scalar scenarioPRJP1.node[21].wlan.mac 	"sentWithoutRetry AC 1" 	14
scalar scenarioPRJP1.node[21].wlan.mac 	"sentWithoutRetry AC 2" 	0
scalar scenarioPRJP1.node[21].wlan.mac 	"sentWithoutRetry AC 3" 	0
scalar scenarioPRJP1.node[21].wlan.mac 	"numGivenUp AC 0" 	231
scalar scenarioPRJP1.node[21].wlan.mac 	"numGivenUp AC 1" 	3
scalar scenarioPRJP1.node[21].wlan.mac 	"numGivenUp AC 2" 	0
scalar scenarioPRJP1.node[21].wlan.mac 	"numGivenUp AC 3" 	0
scalar scenarioPRJP1.node[21].wlan.mac 	"numDropped AC 0" 	0
scalar scenarioPRJP1.node[21].wlan.mac 	"numDropped AC 1" 	0
scalar scenarioPRJP1.node[21].wlan.mac 	"numDropped AC 2" 	0
scalar scenarioPRJP1.node[21].wlan.mac 	"numDropped AC 3" 	0
scalar scenarioPRJP1.node[21].wlan.mac 	rcvdPkFromLL:count 	16124
attr interpolationmode  none
attr source  packetReceivedFromLower
attr title  "packets received from lower layer, count"
scalar scenarioPRJP1.node[21].wlan.mac 	rcvdPkFromLL:sum(packetBytes) 	9593392
attr interpolationmode  none
attr source  packetReceivedFromLower
attr title  "packets received from lower layer, sum(packetBytes)"
scalar scenarioPRJP1.node[21].wlan.mac 	sentDownPk:count 	4816
attr interpolationmode  none
attr source  packetSentToLower
attr title  "packets sent to lower layer, count"
scalar scenarioPRJP1.node[21].wlan.mac 	sentDownPk:sum(packetBytes) 	3166558
attr interpolationmode  none
attr source  packetSentToLower
attr title  "packets sent to lower layer, sum(packetBytes)"
scalar scenarioPRJP1.node[21].wlan.mac 	rcvdPkFromHL:count 	2521
attr interpolationmode  none
attr source  packetReceivedFromUpper
attr title  "packets received from higher layer, count"
scalar scenarioPRJP1.node[21].wlan.mac 	rcvdPkFromHL:sum(packetBytes) 	2383912
attr interpolationmode  none
attr source  packetReceivedFromUpper
attr title  "packets received from higher layer, sum(packetBytes)"
scalar scenarioPRJP1.node[21].wlan.mac 	passedUpPk:count 	6021
attr interpolationmode  none
attr source  packetSentToUpper
attr title  "packets passed to higher layer, count"
scalar scenarioPRJP1.node[21].wlan.mac 	passedUpPk:sum(packetBytes) 	6060584
attr interpolationmode  none
attr source  packetSentToUpper
attr title  "packets passed to higher layer, sum(packetBytes)"
statistic scenarioPRJP1.node[21].wlan.radio 	radioChannel:histogram
field count 1
field mean 3
field stddev nan
field sum 3
field sqrsum 9
field min 3
field max 3
attr interpolationmode  sample-hold
attr source  radioChannelChanged
attr title  "Radio channel, histogram"
bin	-INF	0
bin	2	0
bin	3	1
bin	4	0
scalar scenarioPRJP1.node[21].wlan.radio 	transmissionState:count 	19262
attr interpolationmode  sample-hold
attr source  transmissionStateChanged
attr title  "Radio transmission state, count"
scalar scenarioPRJP1.node[21].wlan.radio 	receptionState:count 	41941
attr interpolationmode  sample-hold
attr source  receptionStateChanged
attr title  "Radio reception state, count"
scalar scenarioPRJP1.node[21].wlan.radio 	radioMode:count 	9633
attr interpolationmode  sample-hold
attr source  radioModeChanged
attr title  "Radio mode, count"
statistic scenarioPRJP1.node[21].wlan.radio 	symbolErrorRate:histogram
field count 0
field mean nan
field stddev nan
field sum 0
field sqrsum 0
field min nan
field max nan
attr source  symbolErrorRate
attr title  "Symbol error rate, histogram"
bin	-INF	0
bin	-0.5	0
bin	-0.46666666666667	0
bin	-0.43333333333333	0
bin	-0.4	0
bin	-0.36666666666667	0
bin	-0.33333333333333	0
bin	-0.3	0
bin	-0.26666666666667	0
bin	-0.23333333333333	0
bin	-0.2	0
bin	-0.16666666666667	0
bin	-0.13333333333333	0
bin	-0.1	0
bin	-0.066666666666667	0
bin	-0.033333333333333	0
bin	0	0
bin	0.033333333333333	0
bin	0.066666666666667	0
bin	0.1	0
bin	0.13333333333333	0
bin	0.16666666666667	0
bin	0.2	0
bin	0.23333333333333	0
bin	0.26666666666667	0
bin	0.3	0
bin	0.33333333333333	0
bin	0.36666666666667	0
bin	0.4	0
bin	0.43333333333333	0
bin	0.46666666666667	0
bin	0.5	0
statistic scenarioPRJP1.node[21].wlan.radio 	bitErrorRate:histogram
field count 0
field mean nan
field stddev nan
field sum 0
field sqrsum 0
field min nan
field max nan
attr source  bitErrorRate
attr title  "Bit error rate, histogram"
bin	-INF	0
bin	-0.5	0
bin	-0.46666666666667	0
bin	-0.43333333333333	0
bin	-0.4	0
bin	-0.36666666666667	0
bin	-0.33333333333333	0
bin	-0.3	0
bin	-0.26666666666667	0
bin	-0.23333333333333	0
bin	-0.2	0
bin	-0.16666666666667	0
bin	-0.13333333333333	0
bin	-0.1	0
bin	-0.066666666666667	0
bin	-0.033333333333333	0
bin	0	0
bin	0.033333333333333	0
bin	0.066666666666667	0
bin	0.1	0
bin	0.13333333333333	0
bin	0.16666666666667	0
bin	0.2	0
bin	0.23333333333333	0
bin	0.26666666666667	0
bin	0.3	0
bin	0.33333333333333	0
bin	0.36666666666667	0
bin	0.4	0
bin	0.43333333333333	0
bin	0.46666666666667	0
bin	0.5	0
statistic scenarioPRJP1.node[21].wlan.radio 	packetErrorRate:histogram
field count 16124
field mean 0.06608804195646
field stddev 0.24118769025176
field sum 1065.603588506
field sqrsum 1008.322780267
field min 0
field max 1
attr source  packetErrorRate
attr title  "Packet error rate, histogram"
bin	-INF	1051
bin	-1.6186483264846e-09	0
bin	-1.40282854962e-09	0
bin	-1.1870087727554e-09	0
bin	-9.7118899589077e-10	0
bin	-7.5536921902615e-10	0
bin	-5.3954944216154e-10	0
bin	-3.2372966529692e-10	0
bin	-1.0790988843231e-10	13414
bin	1.0790988843231e-10	71
bin	3.2372966529692e-10	20
bin	5.3954944216154e-10	32
bin	7.5536921902615e-10	16
bin	9.7118899589077e-10	14
bin	1.1870087727554e-09	8
bin	1.40282854962e-09	16
bin	1.6186483264846e-09	9
bin	1.8344681033492e-09	9
bin	2.0502878802138e-09	10
bin	2.2661076570785e-09	5
bin	2.4819274339431e-09	2
bin	2.6977472108077e-09	10
bin	2.9135669876723e-09	5
bin	3.1293867645369e-09	4
bin	3.3452065414015e-09	3
bin	3.5610263182662e-09	6
bin	3.7768460951308e-09	2
bin	3.9926658719954e-09	5
bin	4.20848564886e-09	0
bin	4.4243054257246e-09	2
bin	4.6401252025892e-09	1
bin	4.8559449794539e-09	1409
statistic scenarioPRJP1.node[21].wlan.radio 	minSNIR:histogram
field count 16124
field mean 14015.592141213
field stddev 81135.153344857
field sum 225987407.68491
field sqrsum 1.0930365538018e+14
field min 0.022715311968335
field max 1231149.8888211
attr source  minSNIR
attr title  "Min SNIR, histogram"
bin	-INF	0
bin	-14512.823075806	0
bin	-12577.047629291	0
bin	-10641.272182776	0
bin	-8705.4967362616	0
bin	-6769.7212897469	0
bin	-4833.9458432322	0
bin	-2898.1703967174	0
bin	-962.39495020274	12715
bin	973.38049631197	1038
bin	2909.1559428267	340
bin	4844.9313893414	150
bin	6780.7068358561	145
bin	8716.4822823708	98
bin	10652.257728886	110
bin	12588.0331754	81
bin	14523.808621915	45
bin	16459.58406843	78
bin	18395.359514944	97
bin	20331.134961459	160
bin	22266.910407974	54
bin	24202.685854488	106
bin	26138.461301003	28
bin	28074.236747518	22
bin	30010.012194033	19
bin	31945.787640547	26
bin	33881.563087062	13
bin	35817.338533577	14
bin	37753.113980091	36
bin	39688.889426606	16
bin	41624.664873121	32
bin	43560.440319636	701
scalar scenarioPRJP1.node[21].lo0.lo 	droppedPkBitError:count 	0
attr interpolationmode  none
attr source  dropPkBitError
attr title  "packets dropped/bit error, count"
scalar scenarioPRJP1.node[21].lo0.lo 	droppedPkBitError:sum(packetBytes) 	0
attr interpolationmode  none
attr source  dropPkBitError
attr title  "packets dropped/bit error, sum(packetBytes)"
scalar scenarioPRJP1.node[21].lo0.lo 	rcvdPkFromHL:count 	2
attr interpolationmode  none
attr source  packetReceivedFromUpper
attr title  "packets received from higher layer, count"
scalar scenarioPRJP1.node[21].lo0.lo 	rcvdPkFromHL:sum(packetBytes) 	112
attr interpolationmode  none
attr source  packetReceivedFromUpper
attr title  "packets received from higher layer, sum(packetBytes)"
scalar scenarioPRJP1.node[21].lo0.lo 	passedUpPk:count 	2
attr interpolationmode  none
attr source  packetSentToUpper
attr title  "packets passed to higher layer, count"
scalar scenarioPRJP1.node[21].lo0.lo 	passedUpPk:sum(packetBytes) 	112
attr interpolationmode  none
attr source  packetSentToUpper
attr title  "packets passed to higher layer, sum(packetBytes)"
scalar scenarioPRJP1.node[1].app 	"Total sent" 	2611
scalar scenarioPRJP1.node[1].app 	"Total received" 	173
scalar scenarioPRJP1.node[1].app 	"Total deleted" 	0
scalar scenarioPRJP1.node[1].app 	dropPk:count 	0
attr interpolationmode  none
attr source  dropPk
attr title  "packets dropped, count"
scalar scenarioPRJP1.node[1].app 	dropPk:sum(packetBytes) 	0
attr interpolationmode  none
attr source  dropPk
attr title  "packets dropped, sum(packetBytes)"
scalar scenarioPRJP1.node[1].app 	outOfOrderPk:count 	0
attr interpolationmode  none
attr source  outOfOrderPk
attr title  "packets received out of order, count"
scalar scenarioPRJP1.node[1].app 	outOfOrderPk:sum(packetBytes) 	0
attr interpolationmode  none
attr source  outOfOrderPk
attr title  "packets received out of order, sum(packetBytes)"
scalar scenarioPRJP1.node[1].app 	rcvdPk:count 	173
attr interpolationmode  none
attr source  rcvdPk
attr title  "packets received, count"
scalar scenarioPRJP1.node[1].app 	rcvdPk:sum(packetBytes) 	88576
attr interpolationmode  none
attr source  rcvdPk
attr title  "packets received, sum(packetBytes)"
statistic scenarioPRJP1.node[1].app 	endToEndDelay:histogram
field count 173
field mean 0.018044520079647
field stddev 0.11033297639066
field sum 3.121701973779
field sqrsum 2.1501485107747
field min 0.000945022741
field max 1.032511642369
attr interpolationmode  none
attr source  messageAge(rcvdPk)
attr title  "delay, histogram"
attr unit  s
bin	-INF	0
bin	-0.514838287073	0
bin	-0.4460671790978	0
bin	-0.3772960711226	0
bin	-0.3085249631474	0
bin	-0.2397538551722	0
bin	-0.170982747197	0
bin	-0.1022116392218	0
bin	-0.0334405312466	166
bin	0.0353305767286	4
bin	0.1041016847038	0
bin	0.172872792679	0
bin	0.2416439006542	1
bin	0.3104150086294	0
bin	0.3791861166046	0
bin	0.4479572245798	0
bin	0.516728332555	0
bin	0.5854994405302	0
bin	0.6542705485054	0
bin	0.7230416564806	0
bin	0.7918127644558	0
bin	0.860583872431	0
bin	0.9293549804062	0
bin	0.9981260883814	2
bin	1.0668971963566	0
bin	1.1356683043318	0
bin	1.204439412307	0
bin	1.2732105202822	0
bin	1.3419816282574	0
bin	1.4107527362326	0
bin	1.4795238442078	0
bin	1.548294952183	0
scalar scenarioPRJP1.node[1].app 	sentPk:count 	2611
attr interpolationmode  none
attr source  sentPk
attr title  "packets sent, count"
scalar scenarioPRJP1.node[1].app 	sentPk:sum(packetBytes) 	1336832
attr interpolationmode  none
attr source  sentPk
attr title  "packets sent, sum(packetBytes)"
scalar scenarioPRJP1.node[1].udp 	droppedPkBadChecksum:count 	0
attr interpolationmode  none
attr title  "packets dropped (checksum error), count"
scalar scenarioPRJP1.node[1].udp 	droppedPkWrongPort:count 	0
attr interpolationmode  none
attr title  "packets dropped (wrong port), count"
scalar scenarioPRJP1.node[1].udp 	passedUpPk:count 	173
attr interpolationmode  none
attr title  "packets passed up, count"
scalar scenarioPRJP1.node[1].udp 	rcvdPk:count 	173
attr interpolationmode  none
attr source  rcvdPk
attr title  "packets received, count"
scalar scenarioPRJP1.node[1].udp 	rcvdPk:sum(packetBytes) 	89960
attr interpolationmode  none
attr source  rcvdPk
attr title  "packets received, sum(packetBytes)"
scalar scenarioPRJP1.node[1].udp 	sentPk:count 	2611
attr interpolationmode  none
attr source  sentPk
attr title  "packets sent, count"
scalar scenarioPRJP1.node[1].udp 	sentPk:sum(packetBytes) 	1357720
attr interpolationmode  none
attr source  sentPk
attr title  "packets sent, sum(packetBytes)"
scalar scenarioPRJP1.node[1].networkLayer.arp 	failedARPResolution:count 	3
attr title  "ARP failed resolutions, count"
scalar scenarioPRJP1.node[1].networkLayer.arp 	completedARPResolution:count 	184
attr title  "ARP completed resolutions, count"
scalar scenarioPRJP1.node[1].networkLayer.arp 	initiatedARPResolution:count 	37
attr title  "ARP initiated resolutions, count"
scalar scenarioPRJP1.node[1].networkLayer.arp 	sentReply:count 	35
attr title  "ARP replies sent, count"
scalar scenarioPRJP1.node[1].networkLayer.arp 	sentReq:count 	45
attr title  "ARP request sent, count"
scalar scenarioPRJP1.node[1].mobility 	startTime 	0.1
scalar scenarioPRJP1.node[1].mobility 	totalTime 	949.9
scalar scenarioPRJP1.node[1].mobility 	stopTime 	950
scalar scenarioPRJP1.node[1].mobility 	minSpeed 	2.4755383687015e-13
scalar scenarioPRJP1.node[1].mobility 	maxSpeed 	18.436242237768
scalar scenarioPRJP1.node[1].mobility 	totalDistance 	8925.4929858755
scalar scenarioPRJP1.node[1].mobility 	totalCO2Emission 	2500.1291053758
scalar scenarioPRJP1.node[1].wlan.mgmt 	dataQueueLen:max 	0
attr interpolationmode  sample-hold
attr title  "data queue length, max"
scalar scenarioPRJP1.node[1].wlan.mgmt 	dataQueueLen:timeavg 	0
attr interpolationmode  sample-hold
attr title  "data queue length, timeavg"
scalar scenarioPRJP1.node[1].wlan.mgmt 	dropPkByQueue:count 	0
attr interpolationmode  none
attr source  dropPkByQueue
attr title  "packets dropped by queue, count"
scalar scenarioPRJP1.node[1].wlan.mgmt 	dropPkByQueue:sum(packetBytes) 	0
attr interpolationmode  none
attr source  dropPkByQueue
attr title  "packets dropped by queue, sum(packetBytes)"
scalar scenarioPRJP1.node[1].wlan.mac 	"number of received packets" 	968
scalar scenarioPRJP1.node[1].wlan.mac 	"number of collisions" 	1065
scalar scenarioPRJP1.node[1].wlan.mac 	"number of internal collisions" 	1
scalar scenarioPRJP1.node[1].wlan.mac 	"number of retry for AC 0" 	1366
scalar scenarioPRJP1.node[1].wlan.mac 	"number of retry for AC 1" 	6
scalar scenarioPRJP1.node[1].wlan.mac 	"number of retry for AC 2" 	0
scalar scenarioPRJP1.node[1].wlan.mac 	"number of retry for AC 3" 	0
scalar scenarioPRJP1.node[1].wlan.mac 	"sent and received bits" 	19564096
scalar scenarioPRJP1.node[1].wlan.mac 	"sent packet within AC 0" 	376
scalar scenarioPRJP1.node[1].wlan.mac 	"sent packet within AC 1" 	16
scalar scenarioPRJP1.node[1].wlan.mac 	"sent packet within AC 2" 	0
scalar scenarioPRJP1.node[1].wlan.mac 	"sent packet within AC 3" 	0
scalar scenarioPRJP1.node[1].wlan.mac 	"sent in TXOP " 	0
scalar scenarioPRJP1.node[1].wlan.mac 	"sentWithoutRetry AC 0" 	364
scalar scenarioPRJP1.node[1].wlan.mac 	"sentWithoutRetry AC 1" 	16
scalar scenarioPRJP1.node[1].wlan.mac 	"sentWithoutRetry AC 2" 	0
scalar scenarioPRJP1.node[1].wlan.mac 	"sentWithoutRetry AC 3" 	0
scalar scenarioPRJP1.node[1].wlan.mac 	"numGivenUp AC 0" 	223
scalar scenarioPRJP1.node[1].wlan.mac 	"numGivenUp AC 1" 	1
scalar scenarioPRJP1.node[1].wlan.mac 	"numGivenUp AC 2" 	0
scalar scenarioPRJP1.node[1].wlan.mac 	"numGivenUp AC 3" 	0
scalar scenarioPRJP1.node[1].wlan.mac 	"numDropped AC 0" 	0
scalar scenarioPRJP1.node[1].wlan.mac 	"numDropped AC 1" 	0
scalar scenarioPRJP1.node[1].wlan.mac 	"numDropped AC 2" 	0
scalar scenarioPRJP1.node[1].wlan.mac 	"numDropped AC 3" 	0
scalar scenarioPRJP1.node[1].wlan.mac 	rcvdPkFromLL:count 	18205
attr interpolationmode  none
attr source  packetReceivedFromLower
attr title  "packets received from lower layer, count"
scalar scenarioPRJP1.node[1].wlan.mac 	rcvdPkFromLL:sum(packetBytes) 	10560480
attr interpolationmode  none
attr source  packetReceivedFromLower
attr title  "packets received from lower layer, sum(packetBytes)"
scalar scenarioPRJP1.node[1].wlan.mac 	sentDownPk:count 	5102
attr interpolationmode  none
attr source  packetSentToLower
attr title  "packets sent to lower layer, count"
scalar scenarioPRJP1.node[1].wlan.mac 	sentDownPk:sum(packetBytes) 	3291964
attr interpolationmode  none
attr source  packetSentToLower
attr title  "packets sent to lower layer, sum(packetBytes)"
scalar scenarioPRJP1.node[1].wlan.mac 	rcvdPkFromHL:count 	2763
attr interpolationmode  none
attr source  packetReceivedFromUpper
attr title  "packets received from higher layer, count"
scalar scenarioPRJP1.node[1].wlan.mac 	rcvdPkFromHL:sum(packetBytes) 	2562276
attr interpolationmode  none
attr source  packetReceivedFromUpper
attr title  "packets received from higher layer, sum(packetBytes)"
scalar scenarioPRJP1.node[1].wlan.mac 	passedUpPk:count 	6871
attr interpolationmode  none
attr source  packetSentToUpper
attr title  "packets passed to higher layer, count"
scalar scenarioPRJP1.node[1].wlan.mac 	passedUpPk:sum(packetBytes) 	6853596
attr interpolationmode  none
attr source  packetSentToUpper
attr title  "packets passed to higher layer, sum(packetBytes)"
statistic scenarioPRJP1.node[1].wlan.radio 	radioChannel:histogram
field count 1
field mean 3
field stddev nan
field sum 3
field sqrsum 9
field min 3
field max 3
attr interpolationmode  sample-hold
attr source  radioChannelChanged
attr title  "Radio channel, histogram"
bin	-INF	0
bin	2	0
bin	3	1
bin	4	0
scalar scenarioPRJP1.node[1].wlan.radio 	transmissionState:count 	20408
attr interpolationmode  sample-hold
attr source  transmissionStateChanged
attr title  "Radio transmission state, count"
scalar scenarioPRJP1.node[1].wlan.radio 	receptionState:count 	46747
attr interpolationmode  sample-hold
attr source  receptionStateChanged
attr title  "Radio reception state, count"
scalar scenarioPRJP1.node[1].wlan.radio 	radioMode:count 	10206
attr interpolationmode  sample-hold
attr source  radioModeChanged
attr title  "Radio mode, count"
statistic scenarioPRJP1.node[1].wlan.radio 	symbolErrorRate:histogram
field count 0
field mean nan
field stddev nan
field sum 0
field sqrsum 0
field min nan
field max nan
attr source  symbolErrorRate
attr title  "Symbol error rate, histogram"
bin	-INF	0
bin	-0.5	0
bin	-0.46666666666667	0
bin	-0.43333333333333	0
bin	-0.4	0
bin	-0.36666666666667	0
bin	-0.33333333333333	0
bin	-0.3	0
bin	-0.26666666666667	0
bin	-0.23333333333333	0
bin	-0.2	0
bin	-0.16666666666667	0
bin	-0.13333333333333	0
bin	-0.1	0
bin	-0.066666666666667	0
bin	-0.033333333333333	0
bin	0	0
bin	0.033333333333333	0
bin	0.066666666666667	0
bin	0.1	0
bin	0.13333333333333	0
bin	0.16666666666667	0
bin	0.2	0
bin	0.23333333333333	0
bin	0.26666666666667	0
bin	0.3	0
bin	0.33333333333333	0
bin	0.36666666666667	0
bin	0.4	0
bin	0.43333333333333	0
bin	0.46666666666667	0
bin	0.5	0
statistic scenarioPRJP1.node[1].wlan.radio 	bitErrorRate:histogram
field count 0
field mean nan
field stddev nan
field sum 0
field sqrsum 0
field min nan
field max nan
attr source  bitErrorRate
attr title  "Bit error rate, histogram"
bin	-INF	0
bin	-0.5	0
bin	-0.46666666666667	0
bin	-0.43333333333333	0
bin	-0.4	0
bin	-0.36666666666667	0
bin	-0.33333333333333	0
bin	-0.3	0
bin	-0.26666666666667	0
bin	-0.23333333333333	0
bin	-0.2	0
bin	-0.16666666666667	0
bin	-0.13333333333333	0
bin	-0.1	0
bin	-0.066666666666667	0
bin	-0.033333333333333	0
bin	0	0
bin	0.033333333333333	0
bin	0.066666666666667	0
bin	0.1	0
bin	0.13333333333333	0
bin	0.16666666666667	0
bin	0.2	0
bin	0.23333333333333	0
bin	0.26666666666667	0
bin	0.3	0
bin	0.33333333333333	0
bin	0.36666666666667	0
bin	0.4	0
bin	0.43333333333333	0
bin	0.46666666666667	0
bin	0.5	0
statistic scenarioPRJP1.node[1].wlan.radio 	packetErrorRate:histogram
field count 18205
field mean 0.054892638304862
field stddev 0.22179285031551
field sum 999.32048034001
field sqrsum 950.34775176138
field min 0
field max 1
attr source  packetErrorRate
attr title  "Packet error rate, histogram"
bin	-INF	0
bin	-0.5	0
bin	-0.46666666666667	0
bin	-0.43333333333333	0
bin	-0.4	0
bin	-0.36666666666667	0
bin	-0.33333333333333	0
bin	-0.3	0
bin	-0.26666666666667	0
bin	-0.23333333333333	0
bin	-0.2	0
bin	-0.16666666666667	0
bin	-0.13333333333333	0
bin	-0.1	0
bin	-0.066666666666667	0
bin	-0.033333333333333	0
bin	0	17006
bin	0.033333333333333	52
bin	0.066666666666667	28
bin	0.1	13
bin	0.13333333333333	22
bin	0.16666666666667	16
bin	0.2	10
bin	0.23333333333333	15
bin	0.26666666666667	9
bin	0.3	13
bin	0.33333333333333	8
bin	0.36666666666667	10
bin	0.4	9
bin	0.43333333333333	8
bin	0.46666666666667	5
bin	0.5	981
statistic scenarioPRJP1.node[1].wlan.radio 	minSNIR:histogram
field count 18205
field mean 8939.9549144251
field stddev 42121.291547149
field sum 162751879.21711
field sqrsum 33752589544364
field min 0.0011999187430929
field max 753239.68262633
attr source  minSNIR
attr title  "Min SNIR, histogram"
bin	-INF	0
bin	-14492.583916055	0
bin	-12558.836808301	0
bin	-10625.089700548	0
bin	-8691.3425927953	0
bin	-6757.5954850422	0
bin	-4823.8483772892	0
bin	-2890.1012695361	0
bin	-956.35416178303	13370
bin	977.39294597004	1480
bin	2911.1400537231	549
bin	4844.8871614762	308
bin	6778.6342692293	258
bin	8712.3813769823	180
bin	10646.128484735	195
bin	12579.875592488	128
bin	14513.622700242	70
bin	16447.369807995	61
bin	18381.116915748	229
bin	20314.864023501	169
bin	22248.611131254	57
bin	24182.358239007	67
bin	26116.10534676	40
bin	28049.852454513	23
bin	29983.599562266	45
bin	31917.346670019	41
bin	33851.093777772	37
bin	35784.840885525	10
bin	37718.587993278	17
bin	39652.335101031	31
bin	41586.082208785	22
bin	43519.829316538	818
scalar scenarioPRJP1.node[1].lo0.lo 	droppedPkBitError:count 	0
attr interpolationmode  none
attr source  dropPkBitError
attr title  "packets dropped/bit error, count"
scalar scenarioPRJP1.node[1].lo0.lo 	droppedPkBitError:sum(packetBytes) 	0
attr interpolationmode  none
attr source  dropPkBitError
attr title  "packets dropped/bit error, sum(packetBytes)"
scalar scenarioPRJP1.node[1].lo0.lo 	rcvdPkFromHL:count 	4
attr interpolationmode  none
attr source  packetReceivedFromUpper
attr title  "packets received from higher layer, count"
scalar scenarioPRJP1.node[1].lo0.lo 	rcvdPkFromHL:sum(packetBytes) 	224
attr interpolationmode  none
attr source  packetReceivedFromUpper
attr title  "packets received from higher layer, sum(packetBytes)"
scalar scenarioPRJP1.node[1].lo0.lo 	passedUpPk:count 	4
attr interpolationmode  none
attr source  packetSentToUpper
attr title  "packets passed to higher layer, count"
scalar scenarioPRJP1.node[1].lo0.lo 	passedUpPk:sum(packetBytes) 	224
attr interpolationmode  none
attr source  packetSentToUpper
attr title  "packets passed to higher layer, sum(packetBytes)"
scalar scenarioPRJP1.node[38].app 	"Total sent" 	2614
scalar scenarioPRJP1.node[38].app 	"Total received" 	156
scalar scenarioPRJP1.node[38].app 	"Total deleted" 	0
scalar scenarioPRJP1.node[38].app 	dropPk:count 	0
attr interpolationmode  none
attr source  dropPk
attr title  "packets dropped, count"
scalar scenarioPRJP1.node[38].app 	dropPk:sum(packetBytes) 	0
attr interpolationmode  none
attr source  dropPk
attr title  "packets dropped, sum(packetBytes)"
scalar scenarioPRJP1.node[38].app 	outOfOrderPk:count 	3
attr interpolationmode  none
attr source  outOfOrderPk
attr title  "packets received out of order, count"
scalar scenarioPRJP1.node[38].app 	outOfOrderPk:sum(packetBytes) 	1536
attr interpolationmode  none
attr source  outOfOrderPk
attr title  "packets received out of order, sum(packetBytes)"
scalar scenarioPRJP1.node[38].app 	rcvdPk:count 	156
attr interpolationmode  none
attr source  rcvdPk
attr title  "packets received, count"
scalar scenarioPRJP1.node[38].app 	rcvdPk:sum(packetBytes) 	79872
attr interpolationmode  none
attr source  rcvdPk
attr title  "packets received, sum(packetBytes)"
statistic scenarioPRJP1.node[38].app 	endToEndDelay:histogram
field count 156
field mean 0.023473789967603
field stddev 0.13139568295014
field sum 3.661911234946
field sqrsum 2.7620068873889
field min 0.000945181633
field max 1.046860480441
attr interpolationmode  none
attr source  messageAge(rcvdPk)
attr title  "delay, histogram"
attr unit  s
bin	-INF	0
bin	-0.3769253921925	0
bin	-0.32654264901577	0
bin	-0.27615990583903	0
bin	-0.2257771626623	0
bin	-0.17539441948557	0
bin	-0.12501167630883	0
bin	-0.0746289331321	0
bin	-0.024246189955367	144
bin	0.026136553221367	9
bin	0.0765192963981	0
bin	0.12690203957483	0
bin	0.17728478275157	0
bin	0.2276675259283	0
bin	0.27805026910503	0
bin	0.32843301228177	0
bin	0.3788157554585	0
bin	0.42919849863523	0
bin	0.47958124181197	0
bin	0.5299639849887	0
bin	0.58034672816543	0
bin	0.63072947134217	0
bin	0.6811122145189	0
bin	0.73149495769563	1
bin	0.78187770087237	0
bin	0.8322604440491	0
bin	0.88264318722583	0
bin	0.93302593040257	0
bin	0.9834086735793	0
bin	1.033791416756	2
bin	1.0841741599328	0
bin	1.1345569031095	0
scalar scenarioPRJP1.node[38].app 	sentPk:count 	2614
attr interpolationmode  none
attr source  sentPk
attr title  "packets sent, count"
scalar scenarioPRJP1.node[38].app 	sentPk:sum(packetBytes) 	1338368
attr interpolationmode  none
attr source  sentPk
attr title  "packets sent, sum(packetBytes)"
scalar scenarioPRJP1.node[38].udp 	droppedPkBadChecksum:count 	0
attr interpolationmode  none
attr title  "packets dropped (checksum error), count"
scalar scenarioPRJP1.node[38].udp 	droppedPkWrongPort:count 	0
attr interpolationmode  none
attr title  "packets dropped (wrong port), count"
scalar scenarioPRJP1.node[38].udp 	passedUpPk:count 	159
attr interpolationmode  none
attr title  "packets passed up, count"
scalar scenarioPRJP1.node[38].udp 	rcvdPk:count 	159
attr interpolationmode  none
attr source  rcvdPk
attr title  "packets received, count"
scalar scenarioPRJP1.node[38].udp 	rcvdPk:sum(packetBytes) 	82680
attr interpolationmode  none
attr source  rcvdPk
attr title  "packets received, sum(packetBytes)"
scalar scenarioPRJP1.node[38].udp 	sentPk:count 	2614
attr interpolationmode  none
attr source  sentPk
attr title  "packets sent, count"
scalar scenarioPRJP1.node[38].udp 	sentPk:sum(packetBytes) 	1359280
attr interpolationmode  none
attr source  sentPk
attr title  "packets sent, sum(packetBytes)"
scalar scenarioPRJP1.node[38].networkLayer.arp 	failedARPResolution:count 	4
attr title  "ARP failed resolutions, count"
scalar scenarioPRJP1.node[38].networkLayer.arp 	completedARPResolution:count 	154
attr title  "ARP completed resolutions, count"
scalar scenarioPRJP1.node[38].networkLayer.arp 	initiatedARPResolution:count 	39
attr title  "ARP initiated resolutions, count"
scalar scenarioPRJP1.node[38].networkLayer.arp 	sentReply:count 	29
attr title  "ARP replies sent, count"
scalar scenarioPRJP1.node[38].networkLayer.arp 	sentReq:count 	49
attr title  "ARP request sent, count"
scalar scenarioPRJP1.node[38].mobility 	startTime 	2.6
scalar scenarioPRJP1.node[38].mobility 	totalTime 	947.4
scalar scenarioPRJP1.node[38].mobility 	stopTime 	950
scalar scenarioPRJP1.node[38].mobility 	minSpeed 	2.4754988127805e-13
scalar scenarioPRJP1.node[38].mobility 	maxSpeed 	16.871016147072
scalar scenarioPRJP1.node[38].mobility 	totalDistance 	8787.856516034
scalar scenarioPRJP1.node[38].mobility 	totalCO2Emission 	2308.224545048
scalar scenarioPRJP1.node[38].wlan.mgmt 	dataQueueLen:max 	0
attr interpolationmode  sample-hold
attr title  "data queue length, max"
scalar scenarioPRJP1.node[38].wlan.mgmt 	dataQueueLen:timeavg 	0
attr interpolationmode  sample-hold
attr title  "data queue length, timeavg"
scalar scenarioPRJP1.node[38].wlan.mgmt 	dropPkByQueue:count 	0
attr interpolationmode  none
attr source  dropPkByQueue
attr title  "packets dropped by queue, count"
scalar scenarioPRJP1.node[38].wlan.mgmt 	dropPkByQueue:sum(packetBytes) 	0
attr interpolationmode  none
attr source  dropPkByQueue
attr title  "packets dropped by queue, sum(packetBytes)"
scalar scenarioPRJP1.node[38].wlan.mac 	"number of received packets" 	1146
scalar scenarioPRJP1.node[38].wlan.mac 	"number of collisions" 	1401
scalar scenarioPRJP1.node[38].wlan.mac 	"number of internal collisions" 	2
scalar scenarioPRJP1.node[38].wlan.mac 	"number of retry for AC 0" 	1832
scalar scenarioPRJP1.node[38].wlan.mac 	"number of retry for AC 1" 	56
scalar scenarioPRJP1.node[38].wlan.mac 	"number of retry for AC 2" 	0
scalar scenarioPRJP1.node[38].wlan.mac 	"number of retry for AC 3" 	0
scalar scenarioPRJP1.node[38].wlan.mac 	"sent and received bits" 	19544576
scalar scenarioPRJP1.node[38].wlan.mac 	"sent packet within AC 0" 	264
scalar scenarioPRJP1.node[38].wlan.mac 	"sent packet within AC 1" 	41
scalar scenarioPRJP1.node[38].wlan.mac 	"sent packet within AC 2" 	0
scalar scenarioPRJP1.node[38].wlan.mac 	"sent packet within AC 3" 	0
scalar scenarioPRJP1.node[38].wlan.mac 	"sent in TXOP " 	0
scalar scenarioPRJP1.node[38].wlan.mac 	"sentWithoutRetry AC 0" 	249
scalar scenarioPRJP1.node[38].wlan.mac 	"sentWithoutRetry AC 1" 	40
scalar scenarioPRJP1.node[38].wlan.mac 	"sentWithoutRetry AC 2" 	0
scalar scenarioPRJP1.node[38].wlan.mac 	"sentWithoutRetry AC 3" 	0
scalar scenarioPRJP1.node[38].wlan.mac 	"numGivenUp AC 0" 	301
scalar scenarioPRJP1.node[38].wlan.mac 	"numGivenUp AC 1" 	9
scalar scenarioPRJP1.node[38].wlan.mac 	"numGivenUp AC 2" 	0
scalar scenarioPRJP1.node[38].wlan.mac 	"numGivenUp AC 3" 	0
scalar scenarioPRJP1.node[38].wlan.mac 	"numDropped AC 0" 	0
scalar scenarioPRJP1.node[38].wlan.mac 	"numDropped AC 1" 	0
scalar scenarioPRJP1.node[38].wlan.mac 	"numDropped AC 2" 	0
scalar scenarioPRJP1.node[38].wlan.mac 	"numDropped AC 3" 	0
scalar scenarioPRJP1.node[38].wlan.mac 	rcvdPkFromLL:count 	19341
attr interpolationmode  none
attr source  packetReceivedFromLower
attr title  "packets received from lower layer, count"
scalar scenarioPRJP1.node[38].wlan.mac 	rcvdPkFromLL:sum(packetBytes) 	11005964
attr interpolationmode  none
attr source  packetReceivedFromLower
attr title  "packets received from lower layer, sum(packetBytes)"
scalar scenarioPRJP1.node[38].wlan.mac 	sentDownPk:count 	5847
attr interpolationmode  none
attr source  packetSentToLower
attr title  "packets sent to lower layer, count"
scalar scenarioPRJP1.node[38].wlan.mac 	sentDownPk:sum(packetBytes) 	3613192
attr interpolationmode  none
attr source  packetSentToLower
attr title  "packets sent to lower layer, sum(packetBytes)"
scalar scenarioPRJP1.node[38].wlan.mac 	rcvdPkFromHL:count 	2815
attr interpolationmode  none
attr source  packetReceivedFromUpper
attr title  "packets received from higher layer, count"
scalar scenarioPRJP1.node[38].wlan.mac 	rcvdPkFromHL:sum(packetBytes) 	2606012
attr interpolationmode  none
attr source  packetReceivedFromUpper
attr title  "packets received from higher layer, sum(packetBytes)"
scalar scenarioPRJP1.node[38].wlan.mac 	passedUpPk:count 	6747
attr interpolationmode  none
attr source  packetSentToUpper
attr title  "packets passed to higher layer, count"
scalar scenarioPRJP1.node[38].wlan.mac 	passedUpPk:sum(packetBytes) 	6751936
attr interpolationmode  none
attr source  packetSentToUpper
attr title  "packets passed to higher layer, sum(packetBytes)"
statistic scenarioPRJP1.node[38].wlan.radio 	radioChannel:histogram
field count 1
field mean 3
field stddev nan
field sum 3
field sqrsum 9
field min 3
field max 3
attr interpolationmode  sample-hold
attr source  radioChannelChanged
attr title  "Radio channel, histogram"
bin	-INF	0
bin	2	0
bin	3	1
bin	4	0
scalar scenarioPRJP1.node[38].wlan.radio 	transmissionState:count 	23388
attr interpolationmode  sample-hold
attr source  transmissionStateChanged
attr title  "Radio transmission state, count"
scalar scenarioPRJP1.node[38].wlan.radio 	receptionState:count 	50496
attr interpolationmode  sample-hold
attr source  receptionStateChanged
attr title  "Radio reception state, count"
scalar scenarioPRJP1.node[38].wlan.radio 	radioMode:count 	11696
attr interpolationmode  sample-hold
attr source  radioModeChanged
attr title  "Radio mode, count"
statistic scenarioPRJP1.node[38].wlan.radio 	symbolErrorRate:histogram
field count 0
field mean nan
field stddev nan
field sum 0
field sqrsum 0
field min nan
field max nan
attr source  symbolErrorRate
attr title  "Symbol error rate, histogram"
bin	-INF	0
bin	-0.5	0
bin	-0.46666666666667	0
bin	-0.43333333333333	0
bin	-0.4	0
bin	-0.36666666666667	0
bin	-0.33333333333333	0
bin	-0.3	0
bin	-0.26666666666667	0
bin	-0.23333333333333	0
bin	-0.2	0
bin	-0.16666666666667	0
bin	-0.13333333333333	0
bin	-0.1	0
bin	-0.066666666666667	0
bin	-0.033333333333333	0
bin	0	0
bin	0.033333333333333	0
bin	0.066666666666667	0
bin	0.1	0
bin	0.13333333333333	0
bin	0.16666666666667	0
bin	0.2	0
bin	0.23333333333333	0
bin	0.26666666666667	0
bin	0.3	0
bin	0.33333333333333	0
bin	0.36666666666667	0
bin	0.4	0
bin	0.43333333333333	0
bin	0.46666666666667	0
bin	0.5	0
statistic scenarioPRJP1.node[38].wlan.radio 	bitErrorRate:histogram
field count 0
field mean nan
field stddev nan
field sum 0
field sqrsum 0
field min nan
field max nan
attr source  bitErrorRate
attr title  "Bit error rate, histogram"
bin	-INF	0
bin	-0.5	0
bin	-0.46666666666667	0
bin	-0.43333333333333	0
bin	-0.4	0
bin	-0.36666666666667	0
bin	-0.33333333333333	0
bin	-0.3	0
bin	-0.26666666666667	0
bin	-0.23333333333333	0
bin	-0.2	0
bin	-0.16666666666667	0
bin	-0.13333333333333	0
bin	-0.1	0
bin	-0.066666666666667	0
bin	-0.033333333333333	0
bin	0	0
bin	0.033333333333333	0
bin	0.066666666666667	0
bin	0.1	0
bin	0.13333333333333	0
bin	0.16666666666667	0
bin	0.2	0
bin	0.23333333333333	0
bin	0.26666666666667	0
bin	0.3	0
bin	0.33333333333333	0
bin	0.36666666666667	0
bin	0.4	0
bin	0.43333333333333	0
bin	0.46666666666667	0
bin	0.5	0
statistic scenarioPRJP1.node[38].wlan.radio 	packetErrorRate:histogram
field count 19341
field mean 0.068610157094202
field stddev 0.24639570417998
field sum 1326.989048359
field sqrsum 1265.1926314319
field min 0
field max 1
attr source  packetErrorRate
attr title  "Packet error rate, histogram"
bin	-INF	0
bin	-0.076486181501397	0
bin	-0.066288023967878	0
bin	-0.056089866434358	0
bin	-0.045891708900838	0
bin	-0.035693551367319	0
bin	-0.025495393833799	0
bin	-0.015297236300279	0
bin	-0.0050990787667598	17566
bin	0.0050990787667598	104
bin	0.015297236300279	61
bin	0.025495393833799	37
bin	0.035693551367319	20
bin	0.045891708900838	21
bin	0.056089866434358	18
bin	0.066288023967878	16
bin	0.076486181501397	8
bin	0.086684339034917	15
bin	0.096882496568437	11
bin	0.10708065410196	7
bin	0.11727881163548	6
bin	0.127476969169	9
bin	0.13767512670252	5
bin	0.14787328423603	12
bin	0.15807144176955	9
bin	0.16826959930307	2
bin	0.17846775683659	8
bin	0.18866591437011	9
bin	0.19886407190363	3
bin	0.20906222943715	7
bin	0.21926038697067	4
bin	0.22945854450419	1383
statistic scenarioPRJP1.node[38].wlan.radio 	minSNIR:histogram
field count 19341
field mean 13173.215788371
field stddev 77982.101332456
field sum 254783166.56288
field sqrsum 1.2096687883226e+14
field min 0.00019530967659678
field max 1802161.9880035
attr source  minSNIR
attr title  "Min SNIR, histogram"
bin	-INF	0
bin	-28458.392367713	0
bin	-24663.62485505	0
bin	-20868.857342387	0
bin	-17074.089829724	0
bin	-13279.322317061	0
bin	-9484.5548043977	0
bin	-5689.7872917346	0
bin	-1895.0197790716	16100
bin	1899.7477335915	986
bin	5694.5152462546	339
bin	9489.2827589177	256
bin	13284.050271581	193
bin	17078.817784244	108
bin	20873.585296907	270
bin	24668.35280957	47
bin	28463.120322233	58
bin	32257.887834896	53
bin	36052.655347559	51
bin	39847.422860222	29
bin	43642.190372886	20
bin	47436.957885549	26
bin	51231.725398212	8
bin	55026.492910875	42
bin	58821.260423538	25
bin	62616.027936201	11
bin	66410.795448864	38
bin	70205.562961527	21
bin	74000.33047419	24
bin	77795.097986853	28
bin	81589.865499516	17
bin	85384.63301218	591
scalar scenarioPRJP1.node[38].lo0.lo 	droppedPkBitError:count 	0
attr interpolationmode  none
attr source  dropPkBitError
attr title  "packets dropped/bit error, count"
scalar scenarioPRJP1.node[38].lo0.lo 	droppedPkBitError:sum(packetBytes) 	0
attr interpolationmode  none
attr source  dropPkBitError
attr title  "packets dropped/bit error, sum(packetBytes)"
scalar scenarioPRJP1.node[38].lo0.lo 	rcvdPkFromHL:count 	1
attr interpolationmode  none
attr source  packetReceivedFromUpper
attr title  "packets received from higher layer, count"
scalar scenarioPRJP1.node[38].lo0.lo 	rcvdPkFromHL:sum(packetBytes) 	56
attr interpolationmode  none
attr source  packetReceivedFromUpper
attr title  "packets received from higher layer, sum(packetBytes)"
scalar scenarioPRJP1.node[38].lo0.lo 	passedUpPk:count 	1
attr interpolationmode  none
attr source  packetSentToUpper
attr title  "packets passed to higher layer, count"
scalar scenarioPRJP1.node[38].lo0.lo 	passedUpPk:sum(packetBytes) 	56
attr interpolationmode  none
attr source  packetSentToUpper
attr title  "packets passed to higher layer, sum(packetBytes)"
scalar scenarioPRJP1.node[2].app 	"Total sent" 	2614
scalar scenarioPRJP1.node[2].app 	"Total received" 	198
scalar scenarioPRJP1.node[2].app 	"Total deleted" 	0
scalar scenarioPRJP1.node[2].app 	dropPk:count 	0
attr interpolationmode  none
attr source  dropPk
attr title  "packets dropped, count"
scalar scenarioPRJP1.node[2].app 	dropPk:sum(packetBytes) 	0
attr interpolationmode  none
attr source  dropPk
attr title  "packets dropped, sum(packetBytes)"
scalar scenarioPRJP1.node[2].app 	outOfOrderPk:count 	0
attr interpolationmode  none
attr source  outOfOrderPk
attr title  "packets received out of order, count"
scalar scenarioPRJP1.node[2].app 	outOfOrderPk:sum(packetBytes) 	0
attr interpolationmode  none
attr source  outOfOrderPk
attr title  "packets received out of order, sum(packetBytes)"
scalar scenarioPRJP1.node[2].app 	rcvdPk:count 	198
attr interpolationmode  none
attr source  rcvdPk
attr title  "packets received, count"
scalar scenarioPRJP1.node[2].app 	rcvdPk:sum(packetBytes) 	101376
attr interpolationmode  none
attr source  rcvdPk
attr title  "packets received, sum(packetBytes)"
statistic scenarioPRJP1.node[2].app 	endToEndDelay:histogram
field count 198
field mean 0.073299367487273
field stddev 0.26558461388998
field sum 14.51327476248
field sqrsum 14.959245725872
field min 0.000945011238
field max 1.812360278735
attr interpolationmode  none
attr source  messageAge(rcvdPk)
attr title  "delay, histogram"
attr unit  s
bin	-INF	0
bin	-0.9047626225105	0
bin	-0.78400160467737	0
bin	-0.66324058684423	0
bin	-0.5424795690111	0
bin	-0.42171855117797	0
bin	-0.30095753334483	0
bin	-0.1801965155117	0
bin	-0.059435497678567	182
bin	0.061325520154567	2
bin	0.1820865379877	1
bin	0.30284755582083	0
bin	0.42360857365397	2
bin	0.5443695914871	0
bin	0.66513060932023	1
bin	0.78589162715337	0
bin	0.9066526449865	8
bin	1.0274136628196	0
bin	1.1481746806528	0
bin	1.2689356984859	0
bin	1.389696716319	0
bin	1.5104577341522	1
bin	1.6312187519853	0
bin	1.7519797698184	1
bin	1.8727407876516	0
bin	1.9935018054847	0
bin	2.1142628233178	0
bin	2.235023841151	0
bin	2.3557848589841	0
bin	2.4765458768172	0
bin	2.5973068946504	0
bin	2.7180679124835	0
scalar scenarioPRJP1.node[2].app 	sentPk:count 	2614
attr interpolationmode  none
attr source  sentPk
attr title  "packets sent, count"
scalar scenarioPRJP1.node[2].app 	sentPk:sum(packetBytes) 	1338368
attr interpolationmode  none
attr source  sentPk
attr title  "packets sent, sum(packetBytes)"
scalar scenarioPRJP1.node[2].udp 	droppedPkBadChecksum:count 	0
attr interpolationmode  none
attr title  "packets dropped (checksum error), count"
scalar scenarioPRJP1.node[2].udp 	droppedPkWrongPort:count 	0
attr interpolationmode  none
attr title  "packets dropped (wrong port), count"
scalar scenarioPRJP1.node[2].udp 	passedUpPk:count 	198
attr interpolationmode  none
attr title  "packets passed up, count"
scalar scenarioPRJP1.node[2].udp 	rcvdPk:count 	198
attr interpolationmode  none
attr source  rcvdPk
attr title  "packets received, count"
scalar scenarioPRJP1.node[2].udp 	rcvdPk:sum(packetBytes) 	102960
attr interpolationmode  none
attr source  rcvdPk
attr title  "packets received, sum(packetBytes)"
scalar scenarioPRJP1.node[2].udp 	sentPk:count 	2614
attr interpolationmode  none
attr source  sentPk
attr title  "packets sent, count"
scalar scenarioPRJP1.node[2].udp 	sentPk:sum(packetBytes) 	1359280
attr interpolationmode  none
attr source  sentPk
attr title  "packets sent, sum(packetBytes)"
scalar scenarioPRJP1.node[2].networkLayer.arp 	failedARPResolution:count 	2
attr title  "ARP failed resolutions, count"
scalar scenarioPRJP1.node[2].networkLayer.arp 	completedARPResolution:count 	168
attr title  "ARP completed resolutions, count"
scalar scenarioPRJP1.node[2].networkLayer.arp 	initiatedARPResolution:count 	35
attr title  "ARP initiated resolutions, count"
scalar scenarioPRJP1.node[2].networkLayer.arp 	sentReply:count 	32
attr title  "ARP replies sent, count"
scalar scenarioPRJP1.node[2].networkLayer.arp 	sentReq:count 	46
attr title  "ARP request sent, count"
scalar scenarioPRJP1.node[2].mobility 	startTime 	0.1
scalar scenarioPRJP1.node[2].mobility 	totalTime 	949.9
scalar scenarioPRJP1.node[2].mobility 	stopTime 	950
scalar scenarioPRJP1.node[2].mobility 	minSpeed 	2.4754949051986e-13
scalar scenarioPRJP1.node[2].mobility 	maxSpeed 	20.219274891532
scalar scenarioPRJP1.node[2].mobility 	totalDistance 	10720.901411355
scalar scenarioPRJP1.node[2].mobility 	totalCO2Emission 	2985.548845337
scalar scenarioPRJP1.node[2].wlan.mgmt 	dataQueueLen:max 	0
attr interpolationmode  sample-hold
attr title  "data queue length, max"
scalar scenarioPRJP1.node[2].wlan.mgmt 	dataQueueLen:timeavg 	0
attr interpolationmode  sample-hold
attr title  "data queue length, timeavg"
scalar scenarioPRJP1.node[2].wlan.mgmt 	dropPkByQueue:count 	0
attr interpolationmode  none
attr source  dropPkByQueue
attr title  "packets dropped by queue, count"
scalar scenarioPRJP1.node[2].wlan.mgmt 	dropPkByQueue:sum(packetBytes) 	0
attr interpolationmode  none
attr source  dropPkByQueue
attr title  "packets dropped by queue, sum(packetBytes)"
scalar scenarioPRJP1.node[2].wlan.mac 	"number of received packets" 	1476
scalar scenarioPRJP1.node[2].wlan.mac 	"number of collisions" 	1413
scalar scenarioPRJP1.node[2].wlan.mac 	"number of internal collisions" 	1
scalar scenarioPRJP1.node[2].wlan.mac 	"number of retry for AC 0" 	1709
scalar scenarioPRJP1.node[2].wlan.mac 	"number of retry for AC 1" 	30
scalar scenarioPRJP1.node[2].wlan.mac 	"number of retry for AC 2" 	0
scalar scenarioPRJP1.node[2].wlan.mac 	"number of retry for AC 3" 	0
scalar scenarioPRJP1.node[2].wlan.mac 	"sent and received bits" 	21140128
scalar scenarioPRJP1.node[2].wlan.mac 	"sent packet within AC 0" 	502
scalar scenarioPRJP1.node[2].wlan.mac 	"sent packet within AC 1" 	34
scalar scenarioPRJP1.node[2].wlan.mac 	"sent packet within AC 2" 	0
scalar scenarioPRJP1.node[2].wlan.mac 	"sent packet within AC 3" 	0
scalar scenarioPRJP1.node[2].wlan.mac 	"sent in TXOP " 	0
scalar scenarioPRJP1.node[2].wlan.mac 	"sentWithoutRetry AC 0" 	484
scalar scenarioPRJP1.node[2].wlan.mac 	"sentWithoutRetry AC 1" 	34
scalar scenarioPRJP1.node[2].wlan.mac 	"sentWithoutRetry AC 2" 	0
scalar scenarioPRJP1.node[2].wlan.mac 	"sentWithoutRetry AC 3" 	0
scalar scenarioPRJP1.node[2].wlan.mac 	"numGivenUp AC 0" 	280
scalar scenarioPRJP1.node[2].wlan.mac 	"numGivenUp AC 1" 	5
scalar scenarioPRJP1.node[2].wlan.mac 	"numGivenUp AC 2" 	0
scalar scenarioPRJP1.node[2].wlan.mac 	"numGivenUp AC 3" 	0
scalar scenarioPRJP1.node[2].wlan.mac 	"numDropped AC 0" 	0
scalar scenarioPRJP1.node[2].wlan.mac 	"numDropped AC 1" 	0
scalar scenarioPRJP1.node[2].wlan.mac 	"numDropped AC 2" 	0
scalar scenarioPRJP1.node[2].wlan.mac 	"numDropped AC 3" 	0
scalar scenarioPRJP1.node[2].wlan.mac 	rcvdPkFromLL:count 	18656
attr interpolationmode  none
attr source  packetReceivedFromLower
attr title  "packets received from lower layer, count"
scalar scenarioPRJP1.node[2].wlan.mac 	rcvdPkFromLL:sum(packetBytes) 	10955852
attr interpolationmode  none
attr source  packetReceivedFromLower
attr title  "packets received from lower layer, sum(packetBytes)"
scalar scenarioPRJP1.node[2].wlan.mac 	sentDownPk:count 	6297
attr interpolationmode  none
attr source  packetSentToLower
attr title  "packets sent to lower layer, count"
scalar scenarioPRJP1.node[2].wlan.mac 	sentDownPk:sum(packetBytes) 	3742368
attr interpolationmode  none
attr source  packetSentToLower
attr title  "packets sent to lower layer, sum(packetBytes)"
scalar scenarioPRJP1.node[2].wlan.mac 	rcvdPkFromHL:count 	3083
attr interpolationmode  none
attr source  packetReceivedFromUpper
attr title  "packets received from higher layer, count"
scalar scenarioPRJP1.node[2].wlan.mac 	rcvdPkFromHL:sum(packetBytes) 	2794528
attr interpolationmode  none
attr source  packetReceivedFromUpper
attr title  "packets received from higher layer, sum(packetBytes)"
scalar scenarioPRJP1.node[2].wlan.mac 	passedUpPk:count 	7260
attr interpolationmode  none
attr source  packetSentToUpper
attr title  "packets passed to higher layer, count"
scalar scenarioPRJP1.node[2].wlan.mac 	passedUpPk:sum(packetBytes) 	7178580
attr interpolationmode  none
attr source  packetSentToUpper
attr title  "packets passed to higher layer, sum(packetBytes)"
statistic scenarioPRJP1.node[2].wlan.radio 	radioChannel:histogram
field count 1
field mean 3
field stddev nan
field sum 3
field sqrsum 9
field min 3
field max 3
attr interpolationmode  sample-hold
attr source  radioChannelChanged
attr title  "Radio channel, histogram"
bin	-INF	0
bin	2	0
bin	3	1
bin	4	0
scalar scenarioPRJP1.node[2].wlan.radio 	transmissionState:count 	25188
attr interpolationmode  sample-hold
attr source  transmissionStateChanged
attr title  "Radio transmission state, count"
scalar scenarioPRJP1.node[2].wlan.radio 	receptionState:count 	50003
attr interpolationmode  sample-hold
attr source  receptionStateChanged
attr title  "Radio reception state, count"
scalar scenarioPRJP1.node[2].wlan.radio 	radioMode:count 	12596
attr interpolationmode  sample-hold
attr source  radioModeChanged
attr title  "Radio mode, count"
statistic scenarioPRJP1.node[2].wlan.radio 	symbolErrorRate:histogram
field count 0
field mean nan
field stddev nan
field sum 0
field sqrsum 0
field min nan
field max nan
attr source  symbolErrorRate
attr title  "Symbol error rate, histogram"
bin	-INF	0
bin	-0.5	0
bin	-0.46666666666667	0
bin	-0.43333333333333	0
bin	-0.4	0
bin	-0.36666666666667	0
bin	-0.33333333333333	0
bin	-0.3	0
bin	-0.26666666666667	0
bin	-0.23333333333333	0
bin	-0.2	0
bin	-0.16666666666667	0
bin	-0.13333333333333	0
bin	-0.1	0
bin	-0.066666666666667	0
bin	-0.033333333333333	0
bin	0	0
bin	0.033333333333333	0
bin	0.066666666666667	0
bin	0.1	0
bin	0.13333333333333	0
bin	0.16666666666667	0
bin	0.2	0
bin	0.23333333333333	0
bin	0.26666666666667	0
bin	0.3	0
bin	0.33333333333333	0
bin	0.36666666666667	0
bin	0.4	0
bin	0.43333333333333	0
bin	0.46666666666667	0
bin	0.5	0
statistic scenarioPRJP1.node[2].wlan.radio 	bitErrorRate:histogram
field count 0
field mean nan
field stddev nan
field sum 0
field sqrsum 0
field min nan
field max nan
attr source  bitErrorRate
attr title  "Bit error rate, histogram"
bin	-INF	0
bin	-0.5	0
bin	-0.46666666666667	0
bin	-0.43333333333333	0
bin	-0.4	0
bin	-0.36666666666667	0
bin	-0.33333333333333	0
bin	-0.3	0
bin	-0.26666666666667	0
bin	-0.23333333333333	0
bin	-0.2	0
bin	-0.16666666666667	0
bin	-0.13333333333333	0
bin	-0.1	0
bin	-0.066666666666667	0
bin	-0.033333333333333	0
bin	0	0
bin	0.033333333333333	0
bin	0.066666666666667	0
bin	0.1	0
bin	0.13333333333333	0
bin	0.16666666666667	0
bin	0.2	0
bin	0.23333333333333	0
bin	0.26666666666667	0
bin	0.3	0
bin	0.33333333333333	0
bin	0.36666666666667	0
bin	0.4	0
bin	0.43333333333333	0
bin	0.46666666666667	0
bin	0.5	0
statistic scenarioPRJP1.node[2].wlan.radio 	packetErrorRate:histogram
field count 18656
field mean 0.071487213058549
field stddev 0.25082373847118
field sum 1333.6654468203
field sqrsum 1268.9736047939
field min 0
field max 1
attr source  packetErrorRate
attr title  "Packet error rate, histogram"
bin	-INF	0
bin	-0.5	0
bin	-0.43333333333333	0
bin	-0.36666666666667	0
bin	-0.3	0
bin	-0.23333333333333	0
bin	-0.16666666666667	0
bin	-0.1	0
bin	-0.033333333333333	17053
bin	0.033333333333333	101
bin	0.1	61
bin	0.16666666666667	34
bin	0.23333333333333	32
bin	0.3	27
bin	0.36666666666667	23
bin	0.43333333333333	21
bin	0.5	13
bin	0.56666666666667	15
bin	0.63333333333333	18
bin	0.7	17
bin	0.76666666666667	15
bin	0.83333333333333	14
bin	0.9	37
bin	0.96666666666667	1175
bin	1.0333333333333	0
bin	1.1	0
bin	1.1666666666667	0
bin	1.2333333333333	0
bin	1.3	0
bin	1.3666666666667	0
bin	1.4333333333333	0
bin	1.5	0
statistic scenarioPRJP1.node[2].wlan.radio 	minSNIR:histogram
field count 18656
field mean 12355.354719582
field stddev 63133.817707472
field sum 230501497.64853
field sqrsum 77204499361209
field min 0.00081023313237942
field max 753239.71923443
attr source  minSNIR
attr title  "Min SNIR, histogram"
bin	-INF	0
bin	-6547.3886107089	0
bin	-5674.3202364252	0
bin	-4801.2518621416	0
bin	-3928.183487858	0
bin	-3055.1151135744	0
bin	-2182.0467392907	0
bin	-1308.9783650071	0
bin	-435.90999072347	12611
bin	437.15838356015	1737
bin	1310.2267578438	607
bin	2183.2951321274	469
bin	3056.363506411	246
bin	3929.4318806947	219
bin	4802.5002549783	118
bin	5675.5686292619	114
bin	6548.6370035455	84
bin	7421.7053778292	86
bin	8294.7737521128	68
bin	9167.8421263964	68
bin	10040.91050068	84
bin	10913.978874964	64
bin	11787.047249247	84
bin	12660.115623531	82
bin	13533.183997815	80
bin	14406.252372098	34
bin	15279.320746382	54
bin	16152.389120665	37
bin	17025.457494949	47
bin	17898.525869233	27
bin	18771.594243516	62
bin	19644.6626178	1574
scalar scenarioPRJP1.node[2].lo0.lo 	droppedPkBitError:count 	0
attr interpolationmode  none
attr source  dropPkBitError
attr title  "packets dropped/bit error, count"
scalar scenarioPRJP1.node[2].lo0.lo 	droppedPkBitError:sum(packetBytes) 	0
attr interpolationmode  none
attr source  dropPkBitError
attr title  "packets dropped/bit error, sum(packetBytes)"
scalar scenarioPRJP1.node[2].lo0.lo 	rcvdPkFromHL:count 	6
attr interpolationmode  none
attr source  packetReceivedFromUpper
attr title  "packets received from higher layer, count"
scalar scenarioPRJP1.node[2].lo0.lo 	rcvdPkFromHL:sum(packetBytes) 	336
attr interpolationmode  none
attr source  packetReceivedFromUpper
attr title  "packets received from higher layer, sum(packetBytes)"
scalar scenarioPRJP1.node[2].lo0.lo 	passedUpPk:count 	6
attr interpolationmode  none
attr source  packetSentToUpper
attr title  "packets passed to higher layer, count"
scalar scenarioPRJP1.node[2].lo0.lo 	passedUpPk:sum(packetBytes) 	336
attr interpolationmode  none
attr source  packetSentToUpper
attr title  "packets passed to higher layer, sum(packetBytes)"
scalar scenarioPRJP1.node[22].app 	"Total sent" 	2608
scalar scenarioPRJP1.node[22].app 	"Total received" 	209
scalar scenarioPRJP1.node[22].app 	"Total deleted" 	0
scalar scenarioPRJP1.node[22].app 	dropPk:count 	0
attr interpolationmode  none
attr source  dropPk
attr title  "packets dropped, count"
scalar scenarioPRJP1.node[22].app 	dropPk:sum(packetBytes) 	0
attr interpolationmode  none
attr source  dropPk
attr title  "packets dropped, sum(packetBytes)"
scalar scenarioPRJP1.node[22].app 	outOfOrderPk:count 	0
attr interpolationmode  none
attr source  outOfOrderPk
attr title  "packets received out of order, count"
scalar scenarioPRJP1.node[22].app 	outOfOrderPk:sum(packetBytes) 	0
attr interpolationmode  none
attr source  outOfOrderPk
attr title  "packets received out of order, sum(packetBytes)"
scalar scenarioPRJP1.node[22].app 	rcvdPk:count 	209
attr interpolationmode  none
attr source  rcvdPk
attr title  "packets received, count"
scalar scenarioPRJP1.node[22].app 	rcvdPk:sum(packetBytes) 	107008
attr interpolationmode  none
attr source  rcvdPk
attr title  "packets received, sum(packetBytes)"
statistic scenarioPRJP1.node[22].app 	endToEndDelay:histogram
field count 209
field mean 0.036494111083608
field stddev 0.19572538195607
field sum 7.627269216474
field sqrsum 8.2465028395551
field min 0.000945011007
field max 2.018296569968
attr interpolationmode  none
attr source  messageAge(rcvdPk)
attr title  "delay, histogram"
attr unit  s
bin	-INF	0
bin	-1.007730592576	0
bin	-0.87324049646293	0
bin	-0.73875040034987	0
bin	-0.6042603042368	0
bin	-0.46977020812373	0
bin	-0.33528011201067	0
bin	-0.2007900158976	0
bin	-0.066299919784533	203
bin	0.068190176328533	0
bin	0.2026802724416	0
bin	0.33717036855467	0
bin	0.47166046466773	1
bin	0.6061505607808	0
bin	0.74064065689387	1
bin	0.87513075300693	1
bin	1.00962084912	2
bin	1.1441109452331	0
bin	1.2786010413461	0
bin	1.4130911374592	0
bin	1.5475812335723	0
bin	1.6820713296853	0
bin	1.8165614257984	0
bin	1.9510515219115	1
bin	2.0855416180245	0
bin	2.2200317141376	0
bin	2.3545218102507	0
bin	2.4890119063637	0
bin	2.6235020024768	0
bin	2.7579920985899	0
bin	2.8924821947029	0
bin	3.026972290816	0
scalar scenarioPRJP1.node[22].app 	sentPk:count 	2608
attr interpolationmode  none
attr source  sentPk
attr title  "packets sent, count"
scalar scenarioPRJP1.node[22].app 	sentPk:sum(packetBytes) 	1335296
attr interpolationmode  none
attr source  sentPk
attr title  "packets sent, sum(packetBytes)"
scalar scenarioPRJP1.node[22].udp 	droppedPkBadChecksum:count 	0
attr interpolationmode  none
attr title  "packets dropped (checksum error), count"
scalar scenarioPRJP1.node[22].udp 	droppedPkWrongPort:count 	0
attr interpolationmode  none
attr title  "packets dropped (wrong port), count"
scalar scenarioPRJP1.node[22].udp 	passedUpPk:count 	209
attr interpolationmode  none
attr title  "packets passed up, count"
scalar scenarioPRJP1.node[22].udp 	rcvdPk:count 	209
attr interpolationmode  none
attr source  rcvdPk
attr title  "packets received, count"
scalar scenarioPRJP1.node[22].udp 	rcvdPk:sum(packetBytes) 	108680
attr interpolationmode  none
attr source  rcvdPk
attr title  "packets received, sum(packetBytes)"
scalar scenarioPRJP1.node[22].udp 	sentPk:count 	2608
attr interpolationmode  none
attr source  sentPk
attr title  "packets sent, count"
scalar scenarioPRJP1.node[22].udp 	sentPk:sum(packetBytes) 	1356160
attr interpolationmode  none
attr source  sentPk
attr title  "packets sent, sum(packetBytes)"
scalar scenarioPRJP1.node[22].networkLayer.arp 	failedARPResolution:count 	4
attr title  "ARP failed resolutions, count"
scalar scenarioPRJP1.node[22].networkLayer.arp 	completedARPResolution:count 	213
attr title  "ARP completed resolutions, count"
scalar scenarioPRJP1.node[22].networkLayer.arp 	initiatedARPResolution:count 	49
attr title  "ARP initiated resolutions, count"
scalar scenarioPRJP1.node[22].networkLayer.arp 	sentReply:count 	37
attr title  "ARP replies sent, count"
scalar scenarioPRJP1.node[22].networkLayer.arp 	sentReq:count 	65
attr title  "ARP request sent, count"
scalar scenarioPRJP1.node[22].mobility 	startTime 	2.5
scalar scenarioPRJP1.node[22].mobility 	totalTime 	947.5
scalar scenarioPRJP1.node[22].mobility 	stopTime 	950
scalar scenarioPRJP1.node[22].mobility 	minSpeed 	2.4758647772679e-13
scalar scenarioPRJP1.node[22].mobility 	maxSpeed 	17.436210843147
scalar scenarioPRJP1.node[22].mobility 	totalDistance 	11328.633571834
scalar scenarioPRJP1.node[22].mobility 	totalCO2Emission 	2626.0078969977
scalar scenarioPRJP1.node[22].wlan.mgmt 	dataQueueLen:max 	0
attr interpolationmode  sample-hold
attr title  "data queue length, max"
scalar scenarioPRJP1.node[22].wlan.mgmt 	dataQueueLen:timeavg 	0
attr interpolationmode  sample-hold
attr title  "data queue length, timeavg"
scalar scenarioPRJP1.node[22].wlan.mgmt 	dropPkByQueue:count 	0
attr interpolationmode  none
attr source  dropPkByQueue
attr title  "packets dropped by queue, count"
scalar scenarioPRJP1.node[22].wlan.mgmt 	dropPkByQueue:sum(packetBytes) 	0
attr interpolationmode  none
attr source  dropPkByQueue
attr title  "packets dropped by queue, sum(packetBytes)"
scalar scenarioPRJP1.node[22].wlan.mac 	"number of received packets" 	1183
scalar scenarioPRJP1.node[22].wlan.mac 	"number of collisions" 	1904
scalar scenarioPRJP1.node[22].wlan.mac 	"number of internal collisions" 	3
scalar scenarioPRJP1.node[22].wlan.mac 	"number of retry for AC 0" 	1920
scalar scenarioPRJP1.node[22].wlan.mac 	"number of retry for AC 1" 	20
scalar scenarioPRJP1.node[22].wlan.mac 	"number of retry for AC 2" 	0
scalar scenarioPRJP1.node[22].wlan.mac 	"number of retry for AC 3" 	0
scalar scenarioPRJP1.node[22].wlan.mac 	"sent and received bits" 	20814848
scalar scenarioPRJP1.node[22].wlan.mac 	"sent packet within AC 0" 	379
scalar scenarioPRJP1.node[22].wlan.mac 	"sent packet within AC 1" 	34
scalar scenarioPRJP1.node[22].wlan.mac 	"sent packet within AC 2" 	0
scalar scenarioPRJP1.node[22].wlan.mac 	"sent packet within AC 3" 	0
scalar scenarioPRJP1.node[22].wlan.mac 	"sent in TXOP " 	0
scalar scenarioPRJP1.node[22].wlan.mac 	"sentWithoutRetry AC 0" 	358
scalar scenarioPRJP1.node[22].wlan.mac 	"sentWithoutRetry AC 1" 	32
scalar scenarioPRJP1.node[22].wlan.mac 	"sentWithoutRetry AC 2" 	0
scalar scenarioPRJP1.node[22].wlan.mac 	"sentWithoutRetry AC 3" 	0
scalar scenarioPRJP1.node[22].wlan.mac 	"numGivenUp AC 0" 	314
scalar scenarioPRJP1.node[22].wlan.mac 	"numGivenUp AC 1" 	3
scalar scenarioPRJP1.node[22].wlan.mac 	"numGivenUp AC 2" 	0
scalar scenarioPRJP1.node[22].wlan.mac 	"numGivenUp AC 3" 	0
scalar scenarioPRJP1.node[22].wlan.mac 	"numDropped AC 0" 	0
scalar scenarioPRJP1.node[22].wlan.mac 	"numDropped AC 1" 	0
scalar scenarioPRJP1.node[22].wlan.mac 	"numDropped AC 2" 	0
scalar scenarioPRJP1.node[22].wlan.mac 	"numDropped AC 3" 	0
scalar scenarioPRJP1.node[22].wlan.mac 	rcvdPkFromLL:count 	23743
attr interpolationmode  none
attr source  packetReceivedFromLower
attr title  "packets received from lower layer, count"
scalar scenarioPRJP1.node[22].wlan.mac 	rcvdPkFromLL:sum(packetBytes) 	13901398
attr interpolationmode  none
attr source  packetReceivedFromLower
attr title  "packets received from lower layer, sum(packetBytes)"
scalar scenarioPRJP1.node[22].wlan.mac 	sentDownPk:count 	6162
attr interpolationmode  none
attr source  packetSentToLower
attr title  "packets sent to lower layer, count"
scalar scenarioPRJP1.node[22].wlan.mac 	sentDownPk:sum(packetBytes) 	3839542
attr interpolationmode  none
attr source  packetSentToLower
attr title  "packets sent to lower layer, sum(packetBytes)"
scalar scenarioPRJP1.node[22].wlan.mac 	rcvdPkFromHL:count 	3042
attr interpolationmode  none
attr source  packetReceivedFromUpper
attr title  "packets received from higher layer, count"
scalar scenarioPRJP1.node[22].wlan.mac 	rcvdPkFromHL:sum(packetBytes) 	2773780
attr interpolationmode  none
attr source  packetReceivedFromUpper
attr title  "packets received from higher layer, sum(packetBytes)"
scalar scenarioPRJP1.node[22].wlan.mac 	passedUpPk:count 	8565
attr interpolationmode  none
attr source  packetSentToUpper
attr title  "packets passed to higher layer, count"
scalar scenarioPRJP1.node[22].wlan.mac 	passedUpPk:sum(packetBytes) 	8575032
attr interpolationmode  none
attr source  packetSentToUpper
attr title  "packets passed to higher layer, sum(packetBytes)"
statistic scenarioPRJP1.node[22].wlan.radio 	radioChannel:histogram
field count 1
field mean 3
field stddev nan
field sum 3
field sqrsum 9
field min 3
field max 3
attr interpolationmode  sample-hold
attr source  radioChannelChanged
[...]
attr interpolationmode  none
attr source  packetSentToUpper
attr title  "packets passed to higher layer, sum(packetBytes)"
statistic scenarioPRJP1.node[19].wlan.radio 	radioChannel:histogram
field count 1
field mean 3
field stddev nan
field sum 3
field sqrsum 9
field min 3
field max 3
attr interpolationmode  sample-hold
attr source  radioChannelChanged
attr title  "Radio channel, histogram"
bin	-INF	0
bin	2	0
bin	3	1
bin	4	0
scalar scenarioPRJP1.node[19].wlan.radio 	transmissionState:count 	24476
attr interpolationmode  sample-hold
attr source  transmissionStateChanged
attr title  "Radio transmission state, count"
scalar scenarioPRJP1.node[19].wlan.radio 	receptionState:count 	59102
attr interpolationmode  sample-hold
attr source  receptionStateChanged
attr title  "Radio reception state, count"
scalar scenarioPRJP1.node[19].wlan.radio 	radioMode:count 	12240
attr interpolationmode  sample-hold
attr source  radioModeChanged
attr title  "Radio mode, count"
statistic scenarioPRJP1.node[19].wlan.radio 	symbolErrorRate:histogram
field count 0
field mean nan
field stddev nan
field sum 0
field sqrsum 0
field min nan
field max nan
attr source  symbolErrorRate
attr title  "Symbol error rate, histogram"
bin	-INF	0
bin	-0.5	0
bin	-0.46666666666667	0
bin	-0.43333333333333	0
bin	-0.4	0
bin	-0.36666666666667	0
bin	-0.33333333333333	0
bin	-0.3	0
bin	-0.26666666666667	0
bin	-0.23333333333333	0
bin	-0.2	0
bin	-0.16666666666667	0
bin	-0.13333333333333	0
bin	-0.1	0
bin	-0.066666666666667	0
bin	-0.033333333333333	0
bin	0	0
bin	0.033333333333333	0
bin	0.066666666666667	0
bin	0.1	0
bin	0.13333333333333	0
bin	0.16666666666667	0
bin	0.2	0
bin	0.23333333333333	0
bin	0.26666666666667	0
bin	0.3	0
bin	0.33333333333333	0
bin	0.36666666666667	0
bin	0.4	0
bin	0.43333333333333	0
bin	0.46666666666667	0
bin	0.5	0
statistic scenarioPRJP1.node[19].wlan.radio 	bitErrorRate:histogram
field count 0
field mean nan
field stddev nan
field sum 0
field sqrsum 0
field min nan
field max nan
attr source  bitErrorRate
attr title  "Bit error rate, histogram"
bin	-INF	0
bin	-0.5	0
bin	-0.46666666666667	0
bin	-0.43333333333333	0
bin	-0.4	0
bin	-0.36666666666667	0
bin	-0.33333333333333	0
bin	-0.3	0
bin	-0.26666666666667	0
bin	-0.23333333333333	0
bin	-0.2	0
bin	-0.16666666666667	0
bin	-0.13333333333333	0
bin	-0.1	0
bin	-0.066666666666667	0
bin	-0.033333333333333	0
bin	0	0
bin	0.033333333333333	0
bin	0.066666666666667	0
bin	0.1	0
bin	0.13333333333333	0
bin	0.16666666666667	0
bin	0.2	0
bin	0.23333333333333	0
bin	0.26666666666667	0
bin	0.3	0
bin	0.33333333333333	0
bin	0.36666666666667	0
bin	0.4	0
bin	0.43333333333333	0
bin	0.46666666666667	0
bin	0.5	0
statistic scenarioPRJP1.node[19].wlan.radio 	packetErrorRate:histogram
field count 23374
field mean 0.063102664093581
field stddev 0.23656082101785
field sum 1474.9616705234
field sqrsum 1401.0509790018
field min 0
field max 1
attr source  packetErrorRate
attr title  "Packet error rate, histogram"
bin	-INF	0
bin	-0.0045279036682476	0
bin	-0.0039241831791479	0
bin	-0.0033204626900482	0
bin	-0.0027167422009485	0
bin	-0.0021130217118489	0
bin	-0.0015093012227492	0
bin	-0.00090558073364951	0
bin	-0.00030186024454984	21051
bin	0.00030186024454984	121
bin	0.00090558073364951	57
bin	0.0015093012227492	34
bin	0.0021130217118489	29
bin	0.0027167422009485	17
bin	0.0033204626900482	22
bin	0.0039241831791479	12
bin	0.0045279036682476	12
bin	0.0051316241573472	19
bin	0.0057353446464469	11
bin	0.0063390651355466	13
bin	0.0069427856246463	10
bin	0.0075465061137459	19
bin	0.0081502266028456	8
bin	0.0087539470919453	7
bin	0.009357667581045	10
bin	0.0099613880701447	7
bin	0.010565108559244	7
bin	0.011168829048344	8
bin	0.011772549537444	6
bin	0.012376270026543	3
bin	0.012979990515643	2
bin	0.013583711004743	1889
statistic scenarioPRJP1.node[19].wlan.radio 	minSNIR:histogram
field count 23374
field mean 13672.656042782
field stddev 69726.944101153
field sum 319584662.34399
field sqrsum 1.1800551487121e+14
field min 0.0010423937997513
field max 753239.71923443
attr source  minSNIR
attr title  "Min SNIR, histogram"
bin	-INF	0
bin	-11991.432783772	0
bin	-10392.197067571	0
bin	-8792.9613513699	0
bin	-7193.7256351691	0
bin	-5594.4899189682	0
bin	-3995.2542027673	0
bin	-2396.0184865665	0
bin	-796.78277036559	16441
bin	802.45294583528	1923
bin	2401.6886620361	658
bin	4000.924378237	332
bin	5600.1600944379	323
bin	7199.3958106388	242
bin	8798.6315268396	286
bin	10397.86724304	325
bin	11997.102959241	223
bin	13596.338675442	206
bin	15195.574391643	132
bin	16794.810107844	101
bin	18394.045824045	174
bin	19993.281540246	68
bin	21592.517256447	159
bin	23191.752972647	91
bin	24790.988688848	34
bin	26390.224405049	82
bin	27989.46012125	43
bin	29588.695837451	20
bin	31187.931553652	48
bin	32787.167269853	13
bin	34386.402986054	23
bin	35985.638702254	1427
scalar scenarioPRJP1.node[19].lo0.lo 	droppedPkBitError:count 	0
attr interpolationmode  none
attr source  dropPkBitError
attr title  "packets dropped/bit error, count"
scalar scenarioPRJP1.node[19].lo0.lo 	droppedPkBitError:sum(packetBytes) 	0
attr interpolationmode  none
attr source  dropPkBitError
attr title  "packets dropped/bit error, sum(packetBytes)"
scalar scenarioPRJP1.node[19].lo0.lo 	rcvdPkFromHL:count 	5
attr interpolationmode  none
attr source  packetReceivedFromUpper
attr title  "packets received from higher layer, count"
scalar scenarioPRJP1.node[19].lo0.lo 	rcvdPkFromHL:sum(packetBytes) 	280
attr interpolationmode  none
attr source  packetReceivedFromUpper
attr title  "packets received from higher layer, sum(packetBytes)"
scalar scenarioPRJP1.node[19].lo0.lo 	passedUpPk:count 	5
attr interpolationmode  none
attr source  packetSentToUpper
attr title  "packets passed to higher layer, count"
scalar scenarioPRJP1.node[19].lo0.lo 	passedUpPk:sum(packetBytes) 	280
attr interpolationmode  none
attr source  packetSentToUpper
attr title  "packets passed to higher layer, sum(packetBytes)"
scalar scenarioPRJP1.node[37].app 	"Total sent" 	2617
scalar scenarioPRJP1.node[37].app 	"Total received" 	170
scalar scenarioPRJP1.node[37].app 	"Total deleted" 	0
scalar scenarioPRJP1.node[37].app 	dropPk:count 	0
attr interpolationmode  none
attr source  dropPk
attr title  "packets dropped, count"
scalar scenarioPRJP1.node[37].app 	dropPk:sum(packetBytes) 	0
attr interpolationmode  none
attr source  dropPk
attr title  "packets dropped, sum(packetBytes)"
scalar scenarioPRJP1.node[37].app 	outOfOrderPk:count 	0
attr interpolationmode  none
attr source  outOfOrderPk
attr title  "packets received out of order, count"
scalar scenarioPRJP1.node[37].app 	outOfOrderPk:sum(packetBytes) 	0
attr interpolationmode  none
attr source  outOfOrderPk
attr title  "packets received out of order, sum(packetBytes)"
scalar scenarioPRJP1.node[37].app 	rcvdPk:count 	170
attr interpolationmode  none
attr source  rcvdPk
attr title  "packets received, count"
scalar scenarioPRJP1.node[37].app 	rcvdPk:sum(packetBytes) 	87040
attr interpolationmode  none
attr source  rcvdPk
attr title  "packets received, sum(packetBytes)"
statistic scenarioPRJP1.node[37].app 	endToEndDelay:histogram
field count 170
field mean 0.019333758122394
field stddev 0.1114866781732
field sum 3.286738880807
field sqrsum 2.164093234839
field min 0.000945039694
field max 1.01757318599
attr interpolationmode  none
attr source  messageAge(rcvdPk)
attr title  "delay, histogram"
attr unit  s
bin	-INF	0
bin	-0.500076012899	0
bin	-0.4332732058866	0
bin	-0.3664703988742	0
bin	-0.2996675918618	0
bin	-0.2328647848494	0
bin	-0.166061977837	0
bin	-0.0992591708246	0
bin	-0.0324563638122	163
bin	0.0343464432002	3
bin	0.1011492502126	1
bin	0.167952057225	0
bin	0.2347548642374	0
bin	0.3015576712498	1
bin	0.3683604782622	0
bin	0.4351632852746	0
bin	0.501966092287	0
bin	0.5687688992994	0
bin	0.6355717063118	0
bin	0.7023745133242	0
bin	0.7691773203366	0
bin	0.835980127349	0
bin	0.9027829343614	0
bin	0.9695857413738	2
bin	1.0363885483862	0
bin	1.1031913553986	0
bin	1.169994162411	0
bin	1.2367969694234	0
bin	1.3035997764358	0
bin	1.3704025834482	0
bin	1.4372053904606	0
bin	1.504008197473	0
scalar scenarioPRJP1.node[37].app 	sentPk:count 	2617
attr interpolationmode  none
attr source  sentPk
attr title  "packets sent, count"
scalar scenarioPRJP1.node[37].app 	sentPk:sum(packetBytes) 	1339904
attr interpolationmode  none
attr source  sentPk
attr title  "packets sent, sum(packetBytes)"
scalar scenarioPRJP1.node[37].udp 	droppedPkBadChecksum:count 	0
attr interpolationmode  none
attr title  "packets dropped (checksum error), count"
scalar scenarioPRJP1.node[37].udp 	droppedPkWrongPort:count 	0
attr interpolationmode  none
attr title  "packets dropped (wrong port), count"
scalar scenarioPRJP1.node[37].udp 	passedUpPk:count 	170
attr interpolationmode  none
attr title  "packets passed up, count"
scalar scenarioPRJP1.node[37].udp 	rcvdPk:count 	170
attr interpolationmode  none
attr source  rcvdPk
attr title  "packets received, count"
scalar scenarioPRJP1.node[37].udp 	rcvdPk:sum(packetBytes) 	88400
attr interpolationmode  none
attr source  rcvdPk
attr title  "packets received, sum(packetBytes)"
scalar scenarioPRJP1.node[37].udp 	sentPk:count 	2617
attr interpolationmode  none
attr source  sentPk
attr title  "packets sent, count"
scalar scenarioPRJP1.node[37].udp 	sentPk:sum(packetBytes) 	1360840
attr interpolationmode  none
attr source  sentPk
attr title  "packets sent, sum(packetBytes)"
scalar scenarioPRJP1.node[37].networkLayer.arp 	failedARPResolution:count 	1
attr title  "ARP failed resolutions, count"
scalar scenarioPRJP1.node[37].networkLayer.arp 	completedARPResolution:count 	173
attr title  "ARP completed resolutions, count"
scalar scenarioPRJP1.node[37].networkLayer.arp 	initiatedARPResolution:count 	31
attr title  "ARP initiated resolutions, count"
scalar scenarioPRJP1.node[37].networkLayer.arp 	sentReply:count 	48
attr title  "ARP replies sent, count"
scalar scenarioPRJP1.node[37].networkLayer.arp 	sentReq:count 	40
attr title  "ARP request sent, count"
scalar scenarioPRJP1.node[37].mobility 	startTime 	2.5
scalar scenarioPRJP1.node[37].mobility 	totalTime 	947.5
scalar scenarioPRJP1.node[37].mobility 	stopTime 	950
scalar scenarioPRJP1.node[37].mobility 	minSpeed 	2.4755676521627e-13
scalar scenarioPRJP1.node[37].mobility 	maxSpeed 	19.741231946745
scalar scenarioPRJP1.node[37].mobility 	totalDistance 	10356.878894079
scalar scenarioPRJP1.node[37].mobility 	totalCO2Emission 	2663.8852072082
scalar scenarioPRJP1.node[37].wlan.mgmt 	dataQueueLen:max 	1
attr interpolationmode  sample-hold
attr title  "data queue length, max"
scalar scenarioPRJP1.node[37].wlan.mgmt 	dataQueueLen:timeavg 	0
attr interpolationmode  sample-hold
attr title  "data queue length, timeavg"
scalar scenarioPRJP1.node[37].wlan.mgmt 	dropPkByQueue:count 	0
attr interpolationmode  none
attr source  dropPkByQueue
attr title  "packets dropped by queue, count"
scalar scenarioPRJP1.node[37].wlan.mgmt 	dropPkByQueue:sum(packetBytes) 	0
attr interpolationmode  none
attr source  dropPkByQueue
attr title  "packets dropped by queue, sum(packetBytes)"
scalar scenarioPRJP1.node[37].wlan.mac 	"number of received packets" 	1280
scalar scenarioPRJP1.node[37].wlan.mac 	"number of collisions" 	1295
scalar scenarioPRJP1.node[37].wlan.mac 	"number of internal collisions" 	1
scalar scenarioPRJP1.node[37].wlan.mac 	"number of retry for AC 0" 	1963
scalar scenarioPRJP1.node[37].wlan.mac 	"number of retry for AC 1" 	48
scalar scenarioPRJP1.node[37].wlan.mac 	"number of retry for AC 2" 	0
scalar scenarioPRJP1.node[37].wlan.mac 	"number of retry for AC 3" 	0
scalar scenarioPRJP1.node[37].wlan.mac 	"sent and received bits" 	19271040
scalar scenarioPRJP1.node[37].wlan.mac 	"sent packet within AC 0" 	330
scalar scenarioPRJP1.node[37].wlan.mac 	"sent packet within AC 1" 	15
scalar scenarioPRJP1.node[37].wlan.mac 	"sent packet within AC 2" 	0
scalar scenarioPRJP1.node[37].wlan.mac 	"sent packet within AC 3" 	0
scalar scenarioPRJP1.node[37].wlan.mac 	"sent in TXOP " 	0
scalar scenarioPRJP1.node[37].wlan.mac 	"sentWithoutRetry AC 0" 	309
scalar scenarioPRJP1.node[37].wlan.mac 	"sentWithoutRetry AC 1" 	15
scalar scenarioPRJP1.node[37].wlan.mac 	"sentWithoutRetry AC 2" 	0
scalar scenarioPRJP1.node[37].wlan.mac 	"sentWithoutRetry AC 3" 	0
scalar scenarioPRJP1.node[37].wlan.mac 	"numGivenUp AC 0" 	319
scalar scenarioPRJP1.node[37].wlan.mac 	"numGivenUp AC 1" 	8
scalar scenarioPRJP1.node[37].wlan.mac 	"numGivenUp AC 2" 	0
scalar scenarioPRJP1.node[37].wlan.mac 	"numGivenUp AC 3" 	0
scalar scenarioPRJP1.node[37].wlan.mac 	"numDropped AC 0" 	0
scalar scenarioPRJP1.node[37].wlan.mac 	"numDropped AC 1" 	0
scalar scenarioPRJP1.node[37].wlan.mac 	"numDropped AC 2" 	0
scalar scenarioPRJP1.node[37].wlan.mac 	"numDropped AC 3" 	0
scalar scenarioPRJP1.node[37].wlan.mac 	rcvdPkFromLL:count 	19469
attr interpolationmode  none
attr source  packetReceivedFromLower
attr title  "packets received from lower layer, count"
scalar scenarioPRJP1.node[37].wlan.mac 	rcvdPkFromLL:sum(packetBytes) 	11114876
attr interpolationmode  none
attr source  packetReceivedFromLower
attr title  "packets received from lower layer, sum(packetBytes)"
scalar scenarioPRJP1.node[37].wlan.mac 	sentDownPk:count 	6095
attr interpolationmode  none
attr source  packetSentToLower
attr title  "packets sent to lower layer, count"
scalar scenarioPRJP1.node[37].wlan.mac 	sentDownPk:sum(packetBytes) 	3638288
attr interpolationmode  none
attr source  packetSentToLower
attr title  "packets sent to lower layer, sum(packetBytes)"
scalar scenarioPRJP1.node[37].wlan.mac 	rcvdPkFromHL:count 	2805
attr interpolationmode  none
attr source  packetReceivedFromUpper
attr title  "packets received from higher layer, count"
scalar scenarioPRJP1.node[37].wlan.mac 	rcvdPkFromHL:sum(packetBytes) 	2578000
attr interpolationmode  none
attr source  packetReceivedFromUpper
attr title  "packets received from higher layer, sum(packetBytes)"
scalar scenarioPRJP1.node[37].wlan.mac 	passedUpPk:count 	6918
attr interpolationmode  none
attr source  packetSentToUpper
attr title  "packets passed to higher layer, count"
scalar scenarioPRJP1.node[37].wlan.mac 	passedUpPk:sum(packetBytes) 	6901780
attr interpolationmode  none
attr source  packetSentToUpper
attr title  "packets passed to higher layer, sum(packetBytes)"
statistic scenarioPRJP1.node[37].wlan.radio 	radioChannel:histogram
field count 1
field mean 3
field stddev nan
field sum 3
field sqrsum 9
field min 3
field max 3
attr interpolationmode  sample-hold
attr source  radioChannelChanged
attr title  "Radio channel, histogram"
bin	-INF	0
bin	2	0
bin	3	1
bin	4	0
scalar scenarioPRJP1.node[37].wlan.radio 	transmissionState:count 	24380
attr interpolationmode  sample-hold
attr source  transmissionStateChanged
attr title  "Radio transmission state, count"
scalar scenarioPRJP1.node[37].wlan.radio 	receptionState:count 	51233
attr interpolationmode  sample-hold
attr source  receptionStateChanged
attr title  "Radio reception state, count"
scalar scenarioPRJP1.node[37].wlan.radio 	radioMode:count 	12192
attr interpolationmode  sample-hold
attr source  radioModeChanged
attr title  "Radio mode, count"
statistic scenarioPRJP1.node[37].wlan.radio 	symbolErrorRate:histogram
field count 0
field mean nan
field stddev nan
field sum 0
field sqrsum 0
field min nan
field max nan
attr source  symbolErrorRate
attr title  "Symbol error rate, histogram"
bin	-INF	0
bin	-0.5	0
bin	-0.46666666666667	0
bin	-0.43333333333333	0
bin	-0.4	0
bin	-0.36666666666667	0
bin	-0.33333333333333	0
bin	-0.3	0
bin	-0.26666666666667	0
bin	-0.23333333333333	0
bin	-0.2	0
bin	-0.16666666666667	0
bin	-0.13333333333333	0
bin	-0.1	0
bin	-0.066666666666667	0
bin	-0.033333333333333	0
bin	0	0
bin	0.033333333333333	0
bin	0.066666666666667	0
bin	0.1	0
bin	0.13333333333333	0
bin	0.16666666666667	0
bin	0.2	0
bin	0.23333333333333	0
bin	0.26666666666667	0
bin	0.3	0
bin	0.33333333333333	0
bin	0.36666666666667	0
bin	0.4	0
bin	0.43333333333333	0
bin	0.46666666666667	0
bin	0.5	0
statistic scenarioPRJP1.node[37].wlan.radio 	bitErrorRate:histogram
field count 0
field mean nan
field stddev nan
field sum 0
field sqrsum 0
field min nan
field max nan
attr source  bitErrorRate
attr title  "Bit error rate, histogram"
bin	-INF	0
bin	-0.5	0
bin	-0.46666666666667	0
bin	-0.43333333333333	0
bin	-0.4	0
bin	-0.36666666666667	0
bin	-0.33333333333333	0
bin	-0.3	0
bin	-0.26666666666667	0
bin	-0.23333333333333	0
bin	-0.2	0
bin	-0.16666666666667	0
bin	-0.13333333333333	0
bin	-0.1	0
bin	-0.066666666666667	0
bin	-0.033333333333333	0
bin	0	0
bin	0.033333333333333	0
bin	0.066666666666667	0
bin	0.1	0
bin	0.13333333333333	0
bin	0.16666666666667	0
bin	0.2	0
bin	0.23333333333333	0
bin	0.26666666666667	0
bin	0.3	0
bin	0.33333333333333	0
bin	0.36666666666667	0
bin	0.4	0
bin	0.43333333333333	0
bin	0.46666666666667	0
bin	0.5	0
statistic scenarioPRJP1.node[37].wlan.radio 	packetErrorRate:histogram
field count 19469
field mean 0.063645088241469
field stddev 0.23807912822651
field sum 1239.1062229732
field sqrsum 1182.3418017135
field min 0
field max 1
attr source  packetErrorRate
attr title  "Packet error rate, histogram"
bin	-INF	0
bin	-0.49999804778209	0
bin	-0.43333164141114	0
bin	-0.3666652350402	0
bin	-0.29999882866925	0
bin	-0.23333242229831	0
bin	-0.16666601592736	0
bin	-0.099999609556417	0
bin	-0.033333203185472	17994
bin	0.033333203185472	90
bin	0.099999609556417	55
bin	0.16666601592736	31
bin	0.23333242229831	24
bin	0.29999882866925	26
bin	0.3666652350402	21
bin	0.43333164141114	8
bin	0.49999804778209	12
bin	0.56666445415303	17
bin	0.63333086052398	13
bin	0.69999726689492	10
bin	0.76666367326587	25
bin	0.83333007963681	20
bin	0.89999648600776	24
bin	0.9666628923787	1099
bin	1.0333292987496	0
bin	1.0999957051206	0
bin	1.1666621114915	0
bin	1.2333285178625	0
bin	1.2999949242334	0
bin	1.3666613306044	0
bin	1.4333277369753	0
bin	1.4999941433463	0
statistic scenarioPRJP1.node[37].wlan.radio 	minSNIR:histogram
field count 19469
field mean 11658.319230103
field stddev 72823.357472046
field sum 226975817.09088
field sqrsum 1.0588965998184e+14
field min 0.0070977873025983
field max 753239.71923443
attr source  minSNIR
attr title  "Min SNIR, histogram"
bin	-INF	0
bin	-6860.3592143725	0
bin	-5945.4082377287	0
bin	-5030.457261085	0
bin	-4115.5062844412	0
bin	-3200.5553077975	0
bin	-2285.6043311537	0
bin	-1370.65335451	0
bin	-455.70237786627	13816
bin	459.24859877747	1951
bin	1374.1995754212	665
bin	2289.150552065	314
bin	3204.1015287087	218
bin	4119.0525053524	203
bin	5034.0034819962	122
bin	5948.9544586399	86
bin	6863.9054352837	107
bin	7778.8564119274	66
bin	8693.8073885711	41
bin	9608.7583652149	85
bin	10523.709341859	135
bin	11438.660318502	61
bin	12353.611295146	68
bin	13268.56227179	38
bin	14183.513248434	38
bin	15098.464225077	30
bin	16013.415201721	29
bin	16928.366178365	23
bin	17843.317155009	52
bin	18758.268131652	119
bin	19673.219108296	30
bin	20588.17008494	1172
scalar scenarioPRJP1.node[37].lo0.lo 	droppedPkBitError:count 	0
attr interpolationmode  none
attr source  dropPkBitError
attr title  "packets dropped/bit error, count"
scalar scenarioPRJP1.node[37].lo0.lo 	droppedPkBitError:sum(packetBytes) 	0
attr interpolationmode  none
attr source  dropPkBitError
attr title  "packets dropped/bit error, sum(packetBytes)"
scalar scenarioPRJP1.node[37].lo0.lo 	rcvdPkFromHL:count 	2
attr interpolationmode  none
attr source  packetReceivedFromUpper
attr title  "packets received from higher layer, count"
scalar scenarioPRJP1.node[37].lo0.lo 	rcvdPkFromHL:sum(packetBytes) 	112
attr interpolationmode  none
attr source  packetReceivedFromUpper
attr title  "packets received from higher layer, sum(packetBytes)"
scalar scenarioPRJP1.node[37].lo0.lo 	passedUpPk:count 	2
attr interpolationmode  none
attr source  packetSentToUpper
attr title  "packets passed to higher layer, count"
scalar scenarioPRJP1.node[37].lo0.lo 	passedUpPk:sum(packetBytes) 	112
attr interpolationmode  none
attr source  packetSentToUpper
attr title  "packets passed to higher layer, sum(packetBytes)"
