version 2
run OLSR-ETX-LNS-100n-14-20150730-04:14:50-6146
attr configname OLSR-ETX-LNS-100n
attr datetime 20150730-04:14:50
attr experiment OLSR-ETX-LNS-100n
attr inifile omnetpp.ini
attr iterationvars ""
attr iterationvars2 $repetition=14
attr measurement ""
attr network Prj_Part1_propag.scenarioPRJP1
attr processid 6146
attr repetition 14
attr replication #14
attr resultdir results
attr runnumber 14
attr seedset 14

scalar scenarioPRJP1.node[59].app 	"Total sent" 	367
scalar scenarioPRJP1.node[59].app 	"Total received" 	18
scalar scenarioPRJP1.node[59].app 	"Total deleted" 	0
scalar scenarioPRJP1.node[59].app 	dropPk:count 	0
attr interpolationmode  none
attr source  dropPk
attr title  "packets dropped, count"
scalar scenarioPRJP1.node[59].app 	dropPk:sum(packetBytes) 	0
attr interpolationmode  none
attr source  dropPk
attr title  "packets dropped, sum(packetBytes)"
scalar scenarioPRJP1.node[59].app 	outOfOrderPk:count 	0
attr interpolationmode  none
attr source  outOfOrderPk
attr title  "packets received out of order, count"
scalar scenarioPRJP1.node[59].app 	outOfOrderPk:sum(packetBytes) 	0
attr interpolationmode  none
attr source  outOfOrderPk
attr title  "packets received out of order, sum(packetBytes)"
scalar scenarioPRJP1.node[59].app 	rcvdPk:count 	18
attr interpolationmode  none
attr source  rcvdPk
attr title  "packets received, count"
scalar scenarioPRJP1.node[59].app 	rcvdPk:sum(packetBytes) 	9216
attr interpolationmode  none
attr source  rcvdPk
attr title  "packets received, sum(packetBytes)"
statistic scenarioPRJP1.node[59].app 	endToEndDelay:histogram
field count 18
field mean 0.35488021748661
field stddev 0.69502904475911
field sum 6.387843914759
field sqrsum 10.479030779739
field min 0.001023115829
field max 2.039377688004
attr interpolationmode  none
attr source  messageAge(rcvdPk)
attr title  "delay, histogram"
attr unit  s
bin	-INF	0
bin	-1.0181541702585	0
bin	-0.88226386544683	0
bin	-0.74637356063517	0
bin	-0.6104832558235	0
bin	-0.47459295101183	0
bin	-0.33870264620017	0
bin	-0.2028123413885	0
bin	-0.066922036576833	14
bin	0.068968268234834	0
bin	0.2048585730465	0
bin	0.34074887785817	0
bin	0.47663918266983	0
bin	0.6125294874815	0
bin	0.74841979229317	0
bin	0.88431009710483	0
bin	1.0202004019165	2
bin	1.1560907067282	0
bin	1.2919810115398	0
bin	1.4278713163515	0
bin	1.5637616211632	0
bin	1.6996519259748	0
bin	1.8355422307865	0
bin	1.9714325355982	2
bin	2.1073228404098	0
bin	2.2432131452215	0
bin	2.3791034500332	0
bin	2.5149937548448	0
bin	2.6508840596565	0
bin	2.7867743644682	0
bin	2.9226646692798	0
bin	3.0585549740915	0
scalar scenarioPRJP1.node[59].app 	sentPk:count 	367
attr interpolationmode  none
attr source  sentPk
attr title  "packets sent, count"
scalar scenarioPRJP1.node[59].app 	sentPk:sum(packetBytes) 	187904
attr interpolationmode  none
attr source  sentPk
attr title  "packets sent, sum(packetBytes)"
scalar scenarioPRJP1.node[59].udp 	droppedPkBadChecksum:count 	0
attr interpolationmode  none
attr title  "packets dropped (checksum error), count"
scalar scenarioPRJP1.node[59].udp 	droppedPkWrongPort:count 	0
attr interpolationmode  none
attr title  "packets dropped (wrong port), count"
scalar scenarioPRJP1.node[59].udp 	passedUpPk:count 	18
attr interpolationmode  none
attr title  "packets passed up, count"
scalar scenarioPRJP1.node[59].udp 	rcvdPk:count 	18
attr interpolationmode  none
attr source  rcvdPk
attr title  "packets received, count"
scalar scenarioPRJP1.node[59].udp 	rcvdPk:sum(packetBytes) 	9360
attr interpolationmode  none
attr source  rcvdPk
attr title  "packets received, sum(packetBytes)"
scalar scenarioPRJP1.node[59].udp 	sentPk:count 	367
attr interpolationmode  none
attr source  sentPk
attr title  "packets sent, count"
scalar scenarioPRJP1.node[59].udp 	sentPk:sum(packetBytes) 	190840
attr interpolationmode  none
attr source  sentPk
attr title  "packets sent, sum(packetBytes)"
scalar scenarioPRJP1.node[59].networkLayer.arp 	failedARPResolution:count 	24
attr title  "ARP failed resolutions, count"
scalar scenarioPRJP1.node[59].networkLayer.arp 	completedARPResolution:count 	411
attr title  "ARP completed resolutions, count"
scalar scenarioPRJP1.node[59].networkLayer.arp 	initiatedARPResolution:count 	41
attr title  "ARP initiated resolutions, count"
scalar scenarioPRJP1.node[59].networkLayer.arp 	sentReply:count 	10
attr title  "ARP replies sent, count"
scalar scenarioPRJP1.node[59].networkLayer.arp 	sentReq:count 	99
attr title  "ARP request sent, count"
scalar scenarioPRJP1.node[59].mobility 	startTime 	5
scalar scenarioPRJP1.node[59].mobility 	totalTime 	154
scalar scenarioPRJP1.node[59].mobility 	stopTime 	159.1
scalar scenarioPRJP1.node[59].mobility 	minSpeed 	2.4760376105583e-13
scalar scenarioPRJP1.node[59].mobility 	maxSpeed 	18.379230236505
scalar scenarioPRJP1.node[59].mobility 	totalDistance 	1448.4443554106
scalar scenarioPRJP1.node[59].mobility 	totalCO2Emission 	422.50836827824
scalar scenarioPRJP1.node[59].wlan.mgmt 	dataQueueLen:max 	1
attr interpolationmode  sample-hold
attr title  "data queue length, max"
scalar scenarioPRJP1.node[59].wlan.mgmt 	dataQueueLen:timeavg 	0
attr interpolationmode  sample-hold
attr title  "data queue length, timeavg"
scalar scenarioPRJP1.node[59].wlan.mgmt 	dropPkByQueue:count 	0
attr interpolationmode  none
attr source  dropPkByQueue
attr title  "packets dropped by queue, count"
scalar scenarioPRJP1.node[59].wlan.mgmt 	dropPkByQueue:sum(packetBytes) 	0
attr interpolationmode  none
attr source  dropPkByQueue
attr title  "packets dropped by queue, sum(packetBytes)"
scalar scenarioPRJP1.node[59].wlan.mac 	"number of received packets" 	86
scalar scenarioPRJP1.node[59].wlan.mac 	"number of collisions" 	5304
scalar scenarioPRJP1.node[59].wlan.mac 	"number of internal collisions" 	0
scalar scenarioPRJP1.node[59].wlan.mac 	"number of retry for AC 0" 	837
scalar scenarioPRJP1.node[59].wlan.mac 	"number of retry for AC 1" 	11
scalar scenarioPRJP1.node[59].wlan.mac 	"number of retry for AC 2" 	0
scalar scenarioPRJP1.node[59].wlan.mac 	"number of retry for AC 3" 	0
scalar scenarioPRJP1.node[59].wlan.mac 	"sent and received bits" 	4940608
scalar scenarioPRJP1.node[59].wlan.mac 	"sent packet within AC 0" 	64
scalar scenarioPRJP1.node[59].wlan.mac 	"sent packet within AC 1" 	7
scalar scenarioPRJP1.node[59].wlan.mac 	"sent packet within AC 2" 	0
scalar scenarioPRJP1.node[59].wlan.mac 	"sent packet within AC 3" 	0
scalar scenarioPRJP1.node[59].wlan.mac 	"sent in TXOP " 	0
scalar scenarioPRJP1.node[59].wlan.mac 	"sentWithoutRetry AC 0" 	39
scalar scenarioPRJP1.node[59].wlan.mac 	"sentWithoutRetry AC 1" 	5
scalar scenarioPRJP1.node[59].wlan.mac 	"sentWithoutRetry AC 2" 	0
scalar scenarioPRJP1.node[59].wlan.mac 	"sentWithoutRetry AC 3" 	0
scalar scenarioPRJP1.node[59].wlan.mac 	"numGivenUp AC 0" 	130
scalar scenarioPRJP1.node[59].wlan.mac 	"numGivenUp AC 1" 	1
scalar scenarioPRJP1.node[59].wlan.mac 	"numGivenUp AC 2" 	0
scalar scenarioPRJP1.node[59].wlan.mac 	"numGivenUp AC 3" 	0
scalar scenarioPRJP1.node[59].wlan.mac 	"numDropped AC 0" 	0
scalar scenarioPRJP1.node[59].wlan.mac 	"numDropped AC 1" 	0
scalar scenarioPRJP1.node[59].wlan.mac 	"numDropped AC 2" 	0
scalar scenarioPRJP1.node[59].wlan.mac 	"numDropped AC 3" 	0
scalar scenarioPRJP1.node[59].wlan.mac 	rcvdPkFromLL:count 	13939
attr interpolationmode  none
attr source  packetReceivedFromLower
attr title  "packets received from lower layer, count"
scalar scenarioPRJP1.node[59].wlan.mac 	rcvdPkFromLL:sum(packetBytes) 	8710052
attr interpolationmode  none
attr source  packetReceivedFromLower
attr title  "packets received from lower layer, sum(packetBytes)"
scalar scenarioPRJP1.node[59].wlan.mac 	sentDownPk:count 	1781
attr interpolationmode  none
attr source  packetSentToLower
attr title  "packets sent to lower layer, count"
scalar scenarioPRJP1.node[59].wlan.mac 	sentDownPk:sum(packetBytes) 	1149740
attr interpolationmode  none
attr source  packetSentToLower
attr title  "packets sent to lower layer, sum(packetBytes)"
scalar scenarioPRJP1.node[59].wlan.mac 	rcvdPkFromHL:count 	847
attr interpolationmode  none
attr source  packetReceivedFromUpper
attr title  "packets received from higher layer, count"
scalar scenarioPRJP1.node[59].wlan.mac 	rcvdPkFromHL:sum(packetBytes) 	688964
attr interpolationmode  none
attr source  packetReceivedFromUpper
attr title  "packets received from higher layer, sum(packetBytes)"
scalar scenarioPRJP1.node[59].wlan.mac 	passedUpPk:count 	4004
attr interpolationmode  none
attr source  packetSentToUpper
attr title  "packets passed to higher layer, count"
scalar scenarioPRJP1.node[59].wlan.mac 	passedUpPk:sum(packetBytes) 	3556344
attr interpolationmode  none
attr source  packetSentToUpper
attr title  "packets passed to higher layer, sum(packetBytes)"
statistic scenarioPRJP1.node[59].wlan.radio 	radioChannel:histogram
field count 1
field mean 3
field stddev nan
field sum 3
field sqrsum 9
field min 3
field max 3
attr interpolationmode  sample-hold
attr source  radioChannelChanged
attr title  "Radio channel, histogram"
bin	-INF	0
bin	2	0
bin	3	1
bin	4	0
scalar scenarioPRJP1.node[59].wlan.radio 	transmissionState:count 	7124
attr interpolationmode  sample-hold
attr source  transmissionStateChanged
attr title  "Radio transmission state, count"
scalar scenarioPRJP1.node[59].wlan.radio 	receptionState:count 	34667
attr interpolationmode  sample-hold
attr source  receptionStateChanged
attr title  "Radio reception state, count"
scalar scenarioPRJP1.node[59].wlan.radio 	radioMode:count 	3564
attr interpolationmode  sample-hold
attr source  radioModeChanged
attr title  "Radio mode, count"
statistic scenarioPRJP1.node[59].wlan.radio 	symbolErrorRate:histogram
field count 0
field mean nan
field stddev nan
field sum 0
field sqrsum 0
field min nan
field max nan
attr source  symbolErrorRate
attr title  "Symbol error rate, histogram"
bin	-INF	0
bin	-0.5	0
bin	-0.46666666666667	0
bin	-0.43333333333333	0
bin	-0.4	0
bin	-0.36666666666667	0
bin	-0.33333333333333	0
bin	-0.3	0
bin	-0.26666666666667	0
bin	-0.23333333333333	0
bin	-0.2	0
bin	-0.16666666666667	0
bin	-0.13333333333333	0
bin	-0.1	0
bin	-0.066666666666667	0
bin	-0.033333333333333	0
bin	0	0
bin	0.033333333333333	0
bin	0.066666666666667	0
bin	0.1	0
bin	0.13333333333333	0
bin	0.16666666666667	0
bin	0.2	0
bin	0.23333333333333	0
bin	0.26666666666667	0
bin	0.3	0
bin	0.33333333333333	0
bin	0.36666666666667	0
bin	0.4	0
bin	0.43333333333333	0
bin	0.46666666666667	0
bin	0.5	0
statistic scenarioPRJP1.node[59].wlan.radio 	bitErrorRate:histogram
field count 0
field mean nan
field stddev nan
field sum 0
field sqrsum 0
field min nan
field max nan
attr source  bitErrorRate
attr title  "Bit error rate, histogram"
bin	-INF	0
bin	-0.5	0
bin	-0.46666666666667	0
bin	-0.43333333333333	0
bin	-0.4	0
bin	-0.36666666666667	0
bin	-0.33333333333333	0
bin	-0.3	0
bin	-0.26666666666667	0
bin	-0.23333333333333	0
bin	-0.2	0
bin	-0.16666666666667	0
bin	-0.13333333333333	0
bin	-0.1	0
bin	-0.066666666666667	0
bin	-0.033333333333333	0
bin	0	0
bin	0.033333333333333	0
bin	0.066666666666667	0
bin	0.1	0
bin	0.13333333333333	0
bin	0.16666666666667	0
bin	0.2	0
bin	0.23333333333333	0
bin	0.26666666666667	0
bin	0.3	0
bin	0.33333333333333	0
bin	0.36666666666667	0
bin	0.4	0
bin	0.43333333333333	0
bin	0.46666666666667	0
bin	0.5	0
statistic scenarioPRJP1.node[59].wlan.radio 	packetErrorRate:histogram
field count 13939
field mean 0.35766935267993
field stddev 0.47090354897732
field sum 4985.5531070056
field sqrsum 4873.933177235
field min 0
field max 1
attr source  packetErrorRate
attr title  "Packet error rate, histogram"
bin	-INF	0
bin	-0.5	0
bin	-0.43333333333333	0
bin	-0.36666666666667	0
bin	-0.3	0
bin	-0.23333333333333	0
bin	-0.16666666666667	0
bin	-0.1	0
bin	-0.033333333333333	8523
bin	0.033333333333333	160
bin	0.1	85
bin	0.16666666666667	62
bin	0.23333333333333	54
bin	0.3	29
bin	0.36666666666667	37
bin	0.43333333333333	37
bin	0.5	37
bin	0.56666666666667	26
bin	0.63333333333333	28
bin	0.7	29
bin	0.76666666666667	31
bin	0.83333333333333	44
bin	0.9	68
bin	0.96666666666667	4689
bin	1.0333333333333	0
bin	1.1	0
bin	1.1666666666667	0
bin	1.2333333333333	0
bin	1.3	0
bin	1.3666666666667	0
bin	1.4333333333333	0
bin	1.5	0
statistic scenarioPRJP1.node[59].wlan.radio 	minSNIR:histogram
field count 13939
field mean 466.46332170404
field stddev 5990.6688805372
field sum 6502032.2412326
field sqrsum 503241487418.93
field min 0.00037684947444644
field max 388018.04962419
attr source  minSNIR
attr title  "Min SNIR, histogram"
bin	-INF	0
bin	-3124.0609763057	0
bin	-2707.5190759623	0
bin	-2290.9771756189	0
bin	-1874.4352752754	0
bin	-1457.893374932	0
bin	-1041.3514745886	0
bin	-624.8095742452	0
bin	-208.26767390179	12069
bin	208.27422644163	1051
bin	624.81612678504	255
bin	1041.3580271285	123
bin	1457.8999274719	82
bin	1874.4418278153	54
bin	2290.9837281587	29
bin	2707.5256285021	25
bin	3124.0675288455	23
bin	3540.6094291889	29
bin	3957.1513295323	16
bin	4373.6932298758	9
bin	4790.2351302192	9
bin	5206.7770305626	11
bin	5623.318930906	8
bin	6039.8608312494	9
bin	6456.4027315928	8
bin	6872.9446319362	3
bin	7289.4865322797	4
bin	7706.0284326231	3
bin	8122.5703329665	6
bin	8539.1122333099	6
bin	8955.6541336533	5
bin	9372.1960339967	102
scalar scenarioPRJP1.node[59].lo0.lo 	droppedPkBitError:count 	0
attr interpolationmode  none
attr source  dropPkBitError
attr title  "packets dropped/bit error, count"
scalar scenarioPRJP1.node[59].lo0.lo 	droppedPkBitError:sum(packetBytes) 	0
attr interpolationmode  none
attr source  dropPkBitError
attr title  "packets dropped/bit error, sum(packetBytes)"
scalar scenarioPRJP1.node[59].lo0.lo 	rcvdPkFromHL:count 	0
attr interpolationmode  none
attr source  packetReceivedFromUpper
attr title  "packets received from higher layer, count"
scalar scenarioPRJP1.node[59].lo0.lo 	rcvdPkFromHL:sum(packetBytes) 	0
attr interpolationmode  none
attr source  packetReceivedFromUpper
attr title  "packets received from higher layer, sum(packetBytes)"
scalar scenarioPRJP1.node[59].lo0.lo 	passedUpPk:count 	0
attr interpolationmode  none
attr source  packetSentToUpper
attr title  "packets passed to higher layer, count"
scalar scenarioPRJP1.node[59].lo0.lo 	passedUpPk:sum(packetBytes) 	0
attr interpolationmode  none
attr source  packetSentToUpper
attr title  "packets passed to higher layer, sum(packetBytes)"
scalar scenarioPRJP1.node[76].app 	"Total sent" 	371
scalar scenarioPRJP1.node[76].app 	"Total received" 	15
scalar scenarioPRJP1.node[76].app 	"Total deleted" 	0
scalar scenarioPRJP1.node[76].app 	dropPk:count 	0
attr interpolationmode  none
attr source  dropPk
attr title  "packets dropped, count"
scalar scenarioPRJP1.node[76].app 	dropPk:sum(packetBytes) 	0
attr interpolationmode  none
attr source  dropPk
attr title  "packets dropped, sum(packetBytes)"
scalar scenarioPRJP1.node[76].app 	outOfOrderPk:count 	0
attr interpolationmode  none
attr source  outOfOrderPk
attr title  "packets received out of order, count"
scalar scenarioPRJP1.node[76].app 	outOfOrderPk:sum(packetBytes) 	0
attr interpolationmode  none
attr source  outOfOrderPk
attr title  "packets received out of order, sum(packetBytes)"
scalar scenarioPRJP1.node[76].app 	rcvdPk:count 	15
attr interpolationmode  none
attr source  rcvdPk
attr title  "packets received, count"
scalar scenarioPRJP1.node[76].app 	rcvdPk:sum(packetBytes) 	7680
attr interpolationmode  none
attr source  rcvdPk
attr title  "packets received, sum(packetBytes)"
statistic scenarioPRJP1.node[76].app 	endToEndDelay:histogram
field count 15
field mean 0.25054761544653
field stddev 0.50287568862573
field sum 3.758214231698
field sqrsum 4.4819870290404
field min 0.001338899522
field max 1.755744152602
attr interpolationmode  none
attr source  messageAge(rcvdPk)
attr title  "delay, histogram"
attr unit  s
bin	-INF	0
bin	-0.875863727018	0
bin	-0.75890337681267	0
bin	-0.64194302660733	0
bin	-0.524982676402	0
bin	-0.40802232619667	0
bin	-0.29106197599133	0
bin	-0.174101625786	0
bin	-0.057141275580667	11
bin	0.059819074624667	0
bin	0.17677942483	1
bin	0.29373977503533	0
bin	0.41070012524067	1
bin	0.527660475446	0
bin	0.64462082565133	0
bin	0.76158117585667	0
bin	0.878541526062	0
bin	0.99550187626733	1
bin	1.1124622264727	0
bin	1.229422576678	0
bin	1.3463829268833	0
bin	1.4633432770887	0
bin	1.580303627294	0
bin	1.6972639774993	1
bin	1.8142243277047	0
bin	1.93118467791	0
bin	2.0481450281153	0
bin	2.1651053783207	0
bin	2.282065728526	0
bin	2.3990260787313	0
bin	2.5159864289367	0
bin	2.632946779142	0
scalar scenarioPRJP1.node[76].app 	sentPk:count 	371
attr interpolationmode  none
attr source  sentPk
attr title  "packets sent, count"
scalar scenarioPRJP1.node[76].app 	sentPk:sum(packetBytes) 	189952
attr interpolationmode  none
attr source  sentPk
attr title  "packets sent, sum(packetBytes)"
scalar scenarioPRJP1.node[76].udp 	droppedPkBadChecksum:count 	0
attr interpolationmode  none
attr title  "packets dropped (checksum error), count"
scalar scenarioPRJP1.node[76].udp 	droppedPkWrongPort:count 	0
attr interpolationmode  none
attr title  "packets dropped (wrong port), count"
scalar scenarioPRJP1.node[76].udp 	passedUpPk:count 	15
attr interpolationmode  none
attr title  "packets passed up, count"
scalar scenarioPRJP1.node[76].udp 	rcvdPk:count 	15
attr interpolationmode  none
attr source  rcvdPk
attr title  "packets received, count"
scalar scenarioPRJP1.node[76].udp 	rcvdPk:sum(packetBytes) 	7800
attr interpolationmode  none
attr source  rcvdPk
attr title  "packets received, sum(packetBytes)"
scalar scenarioPRJP1.node[76].udp 	sentPk:count 	371
attr interpolationmode  none
attr source  sentPk
attr title  "packets sent, count"
scalar scenarioPRJP1.node[76].udp 	sentPk:sum(packetBytes) 	192920
attr interpolationmode  none
attr source  sentPk
attr title  "packets sent, sum(packetBytes)"
scalar scenarioPRJP1.node[76].networkLayer.arp 	failedARPResolution:count 	14
attr title  "ARP failed resolutions, count"
scalar scenarioPRJP1.node[76].networkLayer.arp 	completedARPResolution:count 	438
attr title  "ARP completed resolutions, count"
scalar scenarioPRJP1.node[76].networkLayer.arp 	initiatedARPResolution:count 	37
attr title  "ARP initiated resolutions, count"
scalar scenarioPRJP1.node[76].networkLayer.arp 	sentReply:count 	9
attr title  "ARP replies sent, count"
scalar scenarioPRJP1.node[76].networkLayer.arp 	sentReq:count 	78
attr title  "ARP request sent, count"
scalar scenarioPRJP1.node[76].mobility 	startTime 	7.4
scalar scenarioPRJP1.node[76].mobility 	totalTime 	152.5
scalar scenarioPRJP1.node[76].mobility 	stopTime 	160
scalar scenarioPRJP1.node[76].mobility 	minSpeed 	2.4755832631067e-13
scalar scenarioPRJP1.node[76].mobility 	maxSpeed 	18.186316124351
scalar scenarioPRJP1.node[76].mobility 	totalDistance 	1484.4442027505
scalar scenarioPRJP1.node[76].mobility 	totalCO2Emission 	448.35582993808
scalar scenarioPRJP1.node[76].wlan.mgmt 	dataQueueLen:max 	1
attr interpolationmode  sample-hold
attr title  "data queue length, max"
scalar scenarioPRJP1.node[76].wlan.mgmt 	dataQueueLen:timeavg 	0
attr interpolationmode  sample-hold
attr title  "data queue length, timeavg"
scalar scenarioPRJP1.node[76].wlan.mgmt 	dropPkByQueue:count 	0
attr interpolationmode  none
attr source  dropPkByQueue
attr title  "packets dropped by queue, count"
scalar scenarioPRJP1.node[76].wlan.mgmt 	dropPkByQueue:sum(packetBytes) 	0
attr interpolationmode  none
attr source  dropPkByQueue
attr title  "packets dropped by queue, sum(packetBytes)"
scalar scenarioPRJP1.node[76].wlan.mac 	"number of received packets" 	81
scalar scenarioPRJP1.node[76].wlan.mac 	"number of collisions" 	5750
scalar scenarioPRJP1.node[76].wlan.mac 	"number of internal collisions" 	0
scalar scenarioPRJP1.node[76].wlan.mac 	"number of retry for AC 0" 	735
scalar scenarioPRJP1.node[76].wlan.mac 	"number of retry for AC 1" 	0
scalar scenarioPRJP1.node[76].wlan.mac 	"number of retry for AC 2" 	0
scalar scenarioPRJP1.node[76].wlan.mac 	"number of retry for AC 3" 	0
scalar scenarioPRJP1.node[76].wlan.mac 	"sent and received bits" 	3678496
scalar scenarioPRJP1.node[76].wlan.mac 	"sent packet within AC 0" 	73
scalar scenarioPRJP1.node[76].wlan.mac 	"sent packet within AC 1" 	0
scalar scenarioPRJP1.node[76].wlan.mac 	"sent packet within AC 2" 	0
scalar scenarioPRJP1.node[76].wlan.mac 	"sent packet within AC 3" 	0
scalar scenarioPRJP1.node[76].wlan.mac 	"sent in TXOP " 	0
scalar scenarioPRJP1.node[76].wlan.mac 	"sentWithoutRetry AC 0" 	37
scalar scenarioPRJP1.node[76].wlan.mac 	"sentWithoutRetry AC 1" 	0
scalar scenarioPRJP1.node[76].wlan.mac 	"sentWithoutRetry AC 2" 	0
scalar scenarioPRJP1.node[76].wlan.mac 	"sentWithoutRetry AC 3" 	0
scalar scenarioPRJP1.node[76].wlan.mac 	"numGivenUp AC 0" 	105
scalar scenarioPRJP1.node[76].wlan.mac 	"numGivenUp AC 1" 	0
scalar scenarioPRJP1.node[76].wlan.mac 	"numGivenUp AC 2" 	0
scalar scenarioPRJP1.node[76].wlan.mac 	"numGivenUp AC 3" 	0
scalar scenarioPRJP1.node[76].wlan.mac 	"numDropped AC 0" 	0
scalar scenarioPRJP1.node[76].wlan.mac 	"numDropped AC 1" 	0
scalar scenarioPRJP1.node[76].wlan.mac 	"numDropped AC 2" 	0
scalar scenarioPRJP1.node[76].wlan.mac 	"numDropped AC 3" 	0
scalar scenarioPRJP1.node[76].wlan.mac 	rcvdPkFromLL:count 	13993
attr interpolationmode  none
attr source  packetReceivedFromLower
attr title  "packets received from lower layer, count"
scalar scenarioPRJP1.node[76].wlan.mac 	rcvdPkFromLL:sum(packetBytes) 	8737024
attr interpolationmode  none
attr source  packetReceivedFromLower
attr title  "packets received from lower layer, sum(packetBytes)"
scalar scenarioPRJP1.node[76].wlan.mac 	sentDownPk:count 	1465
attr interpolationmode  none
attr source  packetSentToLower
attr title  "packets sent to lower layer, count"
scalar scenarioPRJP1.node[76].wlan.mac 	sentDownPk:sum(packetBytes) 	929938
attr interpolationmode  none
attr source  packetSentToLower
attr title  "packets sent to lower layer, sum(packetBytes)"
scalar scenarioPRJP1.node[76].wlan.mac 	rcvdPkFromHL:count 	649
attr interpolationmode  none
attr source  packetReceivedFromUpper
attr title  "packets received from higher layer, count"
scalar scenarioPRJP1.node[76].wlan.mac 	rcvdPkFromHL:sum(packetBytes) 	518244
attr interpolationmode  none
attr source  packetReceivedFromUpper
attr title  "packets received from higher layer, sum(packetBytes)"
scalar scenarioPRJP1.node[76].wlan.mac 	passedUpPk:count 	4110
attr interpolationmode  none
attr source  packetSentToUpper
attr title  "packets passed to higher layer, count"
scalar scenarioPRJP1.node[76].wlan.mac 	passedUpPk:sum(packetBytes) 	3705636
attr interpolationmode  none
attr source  packetSentToUpper
attr title  "packets passed to higher layer, sum(packetBytes)"
statistic scenarioPRJP1.node[76].wlan.radio 	radioChannel:histogram
field count 1
field mean 3
field stddev nan
field sum 3
field sqrsum 9
field min 3
field max 3
attr interpolationmode  sample-hold
attr source  radioChannelChanged
attr title  "Radio channel, histogram"
bin	-INF	0
bin	2	0
bin	3	1
bin	4	0
scalar scenarioPRJP1.node[76].wlan.radio 	transmissionState:count 	5860
attr interpolationmode  sample-hold
attr source  transmissionStateChanged
attr title  "Radio transmission state, count"
scalar scenarioPRJP1.node[76].wlan.radio 	receptionState:count 	33427
attr interpolationmode  sample-hold
attr source  receptionStateChanged
attr title  "Radio reception state, count"
scalar scenarioPRJP1.node[76].wlan.radio 	radioMode:count 	2932
attr interpolationmode  sample-hold
attr source  radioModeChanged
attr title  "Radio mode, count"
statistic scenarioPRJP1.node[76].wlan.radio 	symbolErrorRate:histogram
field count 0
field mean nan
field stddev nan
field sum 0
field sqrsum 0
field min nan
field max nan
attr source  symbolErrorRate
attr title  "Symbol error rate, histogram"
bin	-INF	0
bin	-0.5	0
bin	-0.46666666666667	0
bin	-0.43333333333333	0
bin	-0.4	0
bin	-0.36666666666667	0
bin	-0.33333333333333	0
bin	-0.3	0
bin	-0.26666666666667	0
bin	-0.23333333333333	0
bin	-0.2	0
bin	-0.16666666666667	0
bin	-0.13333333333333	0
bin	-0.1	0
bin	-0.066666666666667	0
bin	-0.033333333333333	0
bin	0	0
bin	0.033333333333333	0
bin	0.066666666666667	0
bin	0.1	0
bin	0.13333333333333	0
bin	0.16666666666667	0
bin	0.2	0
bin	0.23333333333333	0
bin	0.26666666666667	0
bin	0.3	0
bin	0.33333333333333	0
bin	0.36666666666667	0
bin	0.4	0
bin	0.43333333333333	0
bin	0.46666666666667	0
bin	0.5	0
statistic scenarioPRJP1.node[76].wlan.radio 	bitErrorRate:histogram
field count 0
field mean nan
field stddev nan
field sum 0
field sqrsum 0
field min nan
field max nan
attr source  bitErrorRate
attr title  "Bit error rate, histogram"
bin	-INF	0
bin	-0.5	0
bin	-0.46666666666667	0
bin	-0.43333333333333	0
bin	-0.4	0
bin	-0.36666666666667	0
bin	-0.33333333333333	0
bin	-0.3	0
bin	-0.26666666666667	0
bin	-0.23333333333333	0
bin	-0.2	0
bin	-0.16666666666667	0
bin	-0.13333333333333	0
bin	-0.1	0
bin	-0.066666666666667	0
bin	-0.033333333333333	0
bin	0	0
bin	0.033333333333333	0
bin	0.066666666666667	0
bin	0.1	0
bin	0.13333333333333	0
bin	0.16666666666667	0
bin	0.2	0
bin	0.23333333333333	0
bin	0.26666666666667	0
bin	0.3	0
bin	0.33333333333333	0
bin	0.36666666666667	0
bin	0.4	0
bin	0.43333333333333	0
bin	0.46666666666667	0
bin	0.5	0
statistic scenarioPRJP1.node[76].wlan.radio 	packetErrorRate:histogram
field count 13993
field mean 0.38552857838354
field stddev 0.47598334700712
field sum 5394.7013973208
field sqrsum 5249.8411321331
field min 0
field max 1
attr source  packetErrorRate
attr title  "Packet error rate, histogram"
bin	-INF	0
bin	-0.5	0
bin	-0.43333333333333	0
bin	-0.36666666666667	0
bin	-0.3	0
bin	-0.23333333333333	0
bin	-0.16666666666667	0
bin	-0.1	0
bin	-0.033333333333333	7995
bin	0.033333333333333	256
bin	0.1	120
bin	0.16666666666667	64
bin	0.23333333333333	58
bin	0.3	62
bin	0.36666666666667	48
bin	0.43333333333333	42
bin	0.5	30
bin	0.56666666666667	33
bin	0.63333333333333	41
bin	0.7	56
bin	0.76666666666667	42
bin	0.83333333333333	54
bin	0.9	74
bin	0.96666666666667	5018
bin	1.0333333333333	0
bin	1.1	0
bin	1.1666666666667	0
bin	1.2333333333333	0
bin	1.3	0
bin	1.3666666666667	0
bin	1.4333333333333	0
bin	1.5	0
statistic scenarioPRJP1.node[76].wlan.radio 	minSNIR:histogram
field count 13993
field mean 395.24387543643
field stddev 11969.886978833
field sum 5530647.548982
field sqrsum 2006934449021.2
field min 0.00016994180988023
field max 1321898.29135
attr source  minSNIR
attr title  "Min SNIR, histogram"
bin	-INF	0
bin	-15614.177488279	0
bin	-13532.203490545	0
bin	-11450.229492812	0
bin	-9368.2554950786	0
bin	-7286.2814973451	0
bin	-5204.3074996117	0
bin	-3122.3335018782	0
bin	-1040.3595041448	13571
bin	1041.6144935886	236
bin	3123.5884913221	63
bin	5205.5624890555	35
bin	7287.536486789	18
bin	9369.5104845224	10
bin	11451.484482256	6
bin	13533.458479989	3
bin	15615.432477723	2
bin	17697.406475456	4
bin	19779.38047319	6
bin	21861.354470923	4
bin	23943.328468657	2
bin	26025.30246639	4
bin	28107.276464123	2
bin	30189.250461857	2
bin	32271.22445959	1
bin	34353.198457324	1
bin	36435.172455057	1
bin	38517.146452791	0
bin	40599.120450524	2
bin	42681.094448258	0
bin	44763.068445991	3
bin	46845.042443724	17
scalar scenarioPRJP1.node[76].lo0.lo 	droppedPkBitError:count 	0
attr interpolationmode  none
attr source  dropPkBitError
attr title  "packets dropped/bit error, count"
scalar scenarioPRJP1.node[76].lo0.lo 	droppedPkBitError:sum(packetBytes) 	0
attr interpolationmode  none
attr source  dropPkBitError
attr title  "packets dropped/bit error, sum(packetBytes)"
scalar scenarioPRJP1.node[76].lo0.lo 	rcvdPkFromHL:count 	0
attr interpolationmode  none
attr source  packetReceivedFromUpper
attr title  "packets received from higher layer, count"
scalar scenarioPRJP1.node[76].lo0.lo 	rcvdPkFromHL:sum(packetBytes) 	0
attr interpolationmode  none
attr source  packetReceivedFromUpper
attr title  "packets received from higher layer, sum(packetBytes)"
scalar scenarioPRJP1.node[76].lo0.lo 	passedUpPk:count 	0
attr interpolationmode  none
attr source  packetSentToUpper
attr title  "packets passed to higher layer, count"
scalar scenarioPRJP1.node[76].lo0.lo 	passedUpPk:sum(packetBytes) 	0
attr interpolationmode  none
attr source  packetSentToUpper
attr title  "packets passed to higher layer, sum(packetBytes)"
scalar scenarioPRJP1.node[91].app 	"Total sent" 	375
scalar scenarioPRJP1.node[91].app 	"Total received" 	20
scalar scenarioPRJP1.node[91].app 	"Total deleted" 	0
scalar scenarioPRJP1.node[91].app 	dropPk:count 	0
attr interpolationmode  none
attr source  dropPk
attr title  "packets dropped, count"
scalar scenarioPRJP1.node[91].app 	dropPk:sum(packetBytes) 	0
attr interpolationmode  none
attr source  dropPk
attr title  "packets dropped, sum(packetBytes)"
scalar scenarioPRJP1.node[91].app 	outOfOrderPk:count 	0
attr interpolationmode  none
attr source  outOfOrderPk
attr title  "packets received out of order, count"
scalar scenarioPRJP1.node[91].app 	outOfOrderPk:sum(packetBytes) 	0
attr interpolationmode  none
attr source  outOfOrderPk
attr title  "packets received out of order, sum(packetBytes)"
scalar scenarioPRJP1.node[91].app 	rcvdPk:count 	20
attr interpolationmode  none
attr source  rcvdPk
attr title  "packets received, count"
scalar scenarioPRJP1.node[91].app 	rcvdPk:sum(packetBytes) 	10240
attr interpolationmode  none
attr source  rcvdPk
attr title  "packets received, sum(packetBytes)"
statistic scenarioPRJP1.node[91].app 	endToEndDelay:histogram
field count 20
field mean 0.219016119716
field stddev 0.53209267976633
field sum 4.38032239432
field sqrsum 6.3386909912665
field min 0.000958022685
field max 2.025227780193
attr interpolationmode  none
attr source  messageAge(rcvdPk)
attr title  "delay, histogram"
attr unit  s
bin	-INF	0
bin	-1.011176856069	0
bin	-0.8762255389018	0
bin	-0.7412742217346	0
bin	-0.6063229045674	0
bin	-0.4713715874002	0
bin	-0.336420270233	0
bin	-0.2014689530658	0
bin	-0.0665176358986	16
bin	0.0684336812686	1
bin	0.2033849984358	0
bin	0.338336315603	0
bin	0.4732876327702	0
bin	0.6082389499374	0
bin	0.7431902671046	0
bin	0.8781415842718	0
bin	1.013092901439	2
bin	1.1480442186062	0
bin	1.2829955357734	0
bin	1.4179468529406	0
bin	1.5528981701078	0
bin	1.687849487275	0
bin	1.8228008044422	0
bin	1.9577521216094	1
bin	2.0927034387766	0
bin	2.2276547559438	0
bin	2.362606073111	0
bin	2.4975573902782	0
bin	2.6325087074454	0
bin	2.7674600246126	0
bin	2.9024113417798	0
bin	3.037362658947	0
scalar scenarioPRJP1.node[91].app 	sentPk:count 	375
attr interpolationmode  none
attr source  sentPk
attr title  "packets sent, count"
scalar scenarioPRJP1.node[91].app 	sentPk:sum(packetBytes) 	192000
attr interpolationmode  none
attr source  sentPk
attr title  "packets sent, sum(packetBytes)"
scalar scenarioPRJP1.node[91].udp 	droppedPkBadChecksum:count 	0
attr interpolationmode  none
attr title  "packets dropped (checksum error), count"
scalar scenarioPRJP1.node[91].udp 	droppedPkWrongPort:count 	0
attr interpolationmode  none
attr title  "packets dropped (wrong port), count"
scalar scenarioPRJP1.node[91].udp 	passedUpPk:count 	20
attr interpolationmode  none
attr title  "packets passed up, count"
scalar scenarioPRJP1.node[91].udp 	rcvdPk:count 	20
attr interpolationmode  none
attr source  rcvdPk
attr title  "packets received, count"
scalar scenarioPRJP1.node[91].udp 	rcvdPk:sum(packetBytes) 	10400
attr interpolationmode  none
attr source  rcvdPk
attr title  "packets received, sum(packetBytes)"
scalar scenarioPRJP1.node[91].udp 	sentPk:count 	375
attr interpolationmode  none
attr source  sentPk
attr title  "packets sent, count"
scalar scenarioPRJP1.node[91].udp 	sentPk:sum(packetBytes) 	195000
attr interpolationmode  none
attr source  sentPk
attr title  "packets sent, sum(packetBytes)"
scalar scenarioPRJP1.node[91].networkLayer.arp 	failedARPResolution:count 	22
attr title  "ARP failed resolutions, count"
scalar scenarioPRJP1.node[91].networkLayer.arp 	completedARPResolution:count 	380
attr title  "ARP completed resolutions, count"
scalar scenarioPRJP1.node[91].networkLayer.arp 	initiatedARPResolution:count 	38
attr title  "ARP initiated resolutions, count"
scalar scenarioPRJP1.node[91].networkLayer.arp 	sentReply:count 	11
attr title  "ARP replies sent, count"
scalar scenarioPRJP1.node[91].networkLayer.arp 	sentReq:count 	98
attr title  "ARP request sent, count"
scalar scenarioPRJP1.node[91].mobility 	startTime 	9.7
scalar scenarioPRJP1.node[91].mobility 	totalTime 	151.4
scalar scenarioPRJP1.node[91].mobility 	stopTime 	161.2
scalar scenarioPRJP1.node[91].mobility 	minSpeed 	2.475821047672e-13
scalar scenarioPRJP1.node[91].mobility 	maxSpeed 	17.005341454558
scalar scenarioPRJP1.node[91].mobility 	totalDistance 	1484.7009658105
scalar scenarioPRJP1.node[91].mobility 	totalCO2Emission 	432.8979666268
scalar scenarioPRJP1.node[91].wlan.mgmt 	dataQueueLen:max 	2
attr interpolationmode  sample-hold
attr title  "data queue length, max"
scalar scenarioPRJP1.node[91].wlan.mgmt 	dataQueueLen:timeavg 	0
attr interpolationmode  sample-hold
attr title  "data queue length, timeavg"
scalar scenarioPRJP1.node[91].wlan.mgmt 	dropPkByQueue:count 	0
attr interpolationmode  none
attr source  dropPkByQueue
attr title  "packets dropped by queue, count"
scalar scenarioPRJP1.node[91].wlan.mgmt 	dropPkByQueue:sum(packetBytes) 	0
attr interpolationmode  none
attr source  dropPkByQueue
attr title  "packets dropped by queue, sum(packetBytes)"
scalar scenarioPRJP1.node[91].wlan.mac 	"number of received packets" 	191
scalar scenarioPRJP1.node[91].wlan.mac 	"number of collisions" 	5782
scalar scenarioPRJP1.node[91].wlan.mac 	"number of internal collisions" 	1
scalar scenarioPRJP1.node[91].wlan.mac 	"number of retry for AC 0" 	813
scalar scenarioPRJP1.node[91].wlan.mac 	"number of retry for AC 1" 	12
scalar scenarioPRJP1.node[91].wlan.mac 	"number of retry for AC 2" 	0
scalar scenarioPRJP1.node[91].wlan.mac 	"number of retry for AC 3" 	0
scalar scenarioPRJP1.node[91].wlan.mac 	"sent and received bits" 	5106016
scalar scenarioPRJP1.node[91].wlan.mac 	"sent packet within AC 0" 	161
scalar scenarioPRJP1.node[91].wlan.mac 	"sent packet within AC 1" 	5
scalar scenarioPRJP1.node[91].wlan.mac 	"sent packet within AC 2" 	0
scalar scenarioPRJP1.node[91].wlan.mac 	"sent packet within AC 3" 	0
scalar scenarioPRJP1.node[91].wlan.mac 	"sent in TXOP " 	0
scalar scenarioPRJP1.node[91].wlan.mac 	"sentWithoutRetry AC 0" 	100
scalar scenarioPRJP1.node[91].wlan.mac 	"sentWithoutRetry AC 1" 	5
scalar scenarioPRJP1.node[91].wlan.mac 	"sentWithoutRetry AC 2" 	0
scalar scenarioPRJP1.node[91].wlan.mac 	"sentWithoutRetry AC 3" 	0
scalar scenarioPRJP1.node[91].wlan.mac 	"numGivenUp AC 0" 	116
scalar scenarioPRJP1.node[91].wlan.mac 	"numGivenUp AC 1" 	2
scalar scenarioPRJP1.node[91].wlan.mac 	"numGivenUp AC 2" 	0
scalar scenarioPRJP1.node[91].wlan.mac 	"numGivenUp AC 3" 	0
scalar scenarioPRJP1.node[91].wlan.mac 	"numDropped AC 0" 	0
scalar scenarioPRJP1.node[91].wlan.mac 	"numDropped AC 1" 	0
scalar scenarioPRJP1.node[91].wlan.mac 	"numDropped AC 2" 	0
scalar scenarioPRJP1.node[91].wlan.mac 	"numDropped AC 3" 	0
scalar scenarioPRJP1.node[91].wlan.mac 	rcvdPkFromLL:count 	13971
attr interpolationmode  none
attr source  packetReceivedFromLower
attr title  "packets received from lower layer, count"
scalar scenarioPRJP1.node[91].wlan.mac 	rcvdPkFromLL:sum(packetBytes) 	8877086
attr interpolationmode  none
attr source  packetReceivedFromLower
attr title  "packets received from lower layer, sum(packetBytes)"
scalar scenarioPRJP1.node[91].wlan.mac 	sentDownPk:count 	1915
attr interpolationmode  none
attr source  packetSentToLower
attr title  "packets sent to lower layer, count"
scalar scenarioPRJP1.node[91].wlan.mac 	sentDownPk:sum(packetBytes) 	1156774
attr interpolationmode  none
attr source  packetSentToLower
attr title  "packets sent to lower layer, sum(packetBytes)"
scalar scenarioPRJP1.node[91].wlan.mac 	rcvdPkFromHL:count 	900
attr interpolationmode  none
attr source  packetReceivedFromUpper
attr title  "packets received from higher layer, count"
scalar scenarioPRJP1.node[91].wlan.mac 	rcvdPkFromHL:sum(packetBytes) 	702692
attr interpolationmode  none
attr source  packetReceivedFromUpper
attr title  "packets received from higher layer, sum(packetBytes)"
scalar scenarioPRJP1.node[91].wlan.mac 	passedUpPk:count 	4210
attr interpolationmode  none
attr source  packetSentToUpper
attr title  "packets passed to higher layer, count"
scalar scenarioPRJP1.node[91].wlan.mac 	passedUpPk:sum(packetBytes) 	3812500
attr interpolationmode  none
attr source  packetSentToUpper
attr title  "packets passed to higher layer, sum(packetBytes)"
statistic scenarioPRJP1.node[91].wlan.radio 	radioChannel:histogram
field count 1
field mean 3
field stddev nan
field sum 3
field sqrsum 9
field min 3
field max 3
attr interpolationmode  sample-hold
attr source  radioChannelChanged
attr title  "Radio channel, histogram"
bin	-INF	0
bin	2	0
bin	3	1
bin	4	0
scalar scenarioPRJP1.node[91].wlan.radio 	transmissionState:count 	7660
attr interpolationmode  sample-hold
attr source  transmissionStateChanged
attr title  "Radio transmission state, count"
scalar scenarioPRJP1.node[91].wlan.radio 	receptionState:count 	35310
attr interpolationmode  sample-hold
attr source  receptionStateChanged
attr title  "Radio reception state, count"
scalar scenarioPRJP1.node[91].wlan.radio 	radioMode:count 	3832
attr interpolationmode  sample-hold
attr source  radioModeChanged
attr title  "Radio mode, count"
statistic scenarioPRJP1.node[91].wlan.radio 	symbolErrorRate:histogram
field count 0
field mean nan
field stddev nan
field sum 0
field sqrsum 0
field min nan
field max nan
attr source  symbolErrorRate
attr title  "Symbol error rate, histogram"
bin	-INF	0
bin	-0.5	0
bin	-0.46666666666667	0
bin	-0.43333333333333	0
bin	-0.4	0
bin	-0.36666666666667	0
bin	-0.33333333333333	0
bin	-0.3	0
bin	-0.26666666666667	0
bin	-0.23333333333333	0
bin	-0.2	0
bin	-0.16666666666667	0
bin	-0.13333333333333	0
bin	-0.1	0
bin	-0.066666666666667	0
bin	-0.033333333333333	0
bin	0	0
bin	0.033333333333333	0
bin	0.066666666666667	0
bin	0.1	0
bin	0.13333333333333	0
bin	0.16666666666667	0
bin	0.2	0
bin	0.23333333333333	0
bin	0.26666666666667	0
bin	0.3	0
bin	0.33333333333333	0
bin	0.36666666666667	0
bin	0.4	0
bin	0.43333333333333	0
bin	0.46666666666667	0
bin	0.5	0
statistic scenarioPRJP1.node[91].wlan.radio 	bitErrorRate:histogram
field count 0
field mean nan
field stddev nan
field sum 0
field sqrsum 0
field min nan
field max nan
attr source  bitErrorRate
attr title  "Bit error rate, histogram"
bin	-INF	0
bin	-0.5	0
bin	-0.46666666666667	0
bin	-0.43333333333333	0
bin	-0.4	0
bin	-0.36666666666667	0
bin	-0.33333333333333	0
bin	-0.3	0
bin	-0.26666666666667	0
bin	-0.23333333333333	0
bin	-0.2	0
bin	-0.16666666666667	0
bin	-0.13333333333333	0
bin	-0.1	0
bin	-0.066666666666667	0
bin	-0.033333333333333	0
bin	0	0
bin	0.033333333333333	0
bin	0.066666666666667	0
bin	0.1	0
bin	0.13333333333333	0
bin	0.16666666666667	0
bin	0.2	0
bin	0.23333333333333	0
bin	0.26666666666667	0
bin	0.3	0
bin	0.33333333333333	0
bin	0.36666666666667	0
bin	0.4	0
bin	0.43333333333333	0
bin	0.46666666666667	0
bin	0.5	0
statistic scenarioPRJP1.node[91].wlan.radio 	packetErrorRate:histogram
field count 13971
field mean 0.38809423175982
field stddev 0.47819878394568
field sum 5422.0645119164
field sqrsum 5298.8488165351
field min 0
field max 1
attr source  packetErrorRate
attr title  "Packet error rate, histogram"
bin	-INF	0
bin	-0.5	0
bin	-0.43333333333333	0
bin	-0.36666666666667	0
bin	-0.3	0
bin	-0.23333333333333	0
bin	-0.16666666666667	0
bin	-0.1	0
bin	-0.033333333333333	8057
bin	0.033333333333333	198
bin	0.1	92
bin	0.16666666666667	67
bin	0.23333333333333	41
bin	0.3	50
bin	0.36666666666667	47
bin	0.43333333333333	38
bin	0.5	29
bin	0.56666666666667	35
bin	0.63333333333333	29
bin	0.7	36
bin	0.76666666666667	33
bin	0.83333333333333	43
bin	0.9	75
bin	0.96666666666667	5101
bin	1.0333333333333	0
bin	1.1	0
bin	1.1666666666667	0
bin	1.2333333333333	0
bin	1.3	0
bin	1.3666666666667	0
bin	1.4333333333333	0
bin	1.5	0
statistic scenarioPRJP1.node[91].wlan.radio 	minSNIR:histogram
field count 13971
field mean 620.68907349163
field stddev 10553.811043385
field sum 8671647.0457515
field sqrsum 1561401894297
field min 0.00034526136933081
field max 835009.35382037
attr source  minSNIR
attr title  "Min SNIR, histogram"
bin	-INF	0
bin	-6018.9177627234	0
bin	-5216.3770191958	0
bin	-4413.8362756682	0
bin	-3611.2955321406	0
bin	-2808.754788613	0
bin	-2006.2140450854	0
bin	-1203.6733015578	0
bin	-401.13255803023	12882
bin	401.40818549736	657
bin	1203.948929025	148
bin	2006.4896725526	66
bin	2809.0304160802	36
bin	3611.5711596077	23
bin	4414.1119031353	13
bin	5216.6526466629	9
bin	6019.1933901905	11
bin	6821.7341337181	10
bin	7624.2748772457	6
bin	8426.8156207733	1
bin	9229.3563643009	8
bin	10031.897107829	5
bin	10834.437851356	2
bin	11636.978594884	4
bin	12439.519338411	3
bin	13242.060081939	1
bin	14044.600825466	3
bin	14847.141568994	1
bin	15649.682312522	4
bin	16452.223056049	1
bin	17254.763799577	1
bin	18057.304543104	76
scalar scenarioPRJP1.node[91].lo0.lo 	droppedPkBitError:count 	0
attr interpolationmode  none
attr source  dropPkBitError
attr title  "packets dropped/bit error, count"
scalar scenarioPRJP1.node[91].lo0.lo 	droppedPkBitError:sum(packetBytes) 	0
attr interpolationmode  none
attr source  dropPkBitError
attr title  "packets dropped/bit error, sum(packetBytes)"
scalar scenarioPRJP1.node[91].lo0.lo 	rcvdPkFromHL:count 	1
attr interpolationmode  none
attr source  packetReceivedFromUpper
attr title  "packets received from higher layer, count"
scalar scenarioPRJP1.node[91].lo0.lo 	rcvdPkFromHL:sum(packetBytes) 	56
attr interpolationmode  none
attr source  packetReceivedFromUpper
attr title  "packets received from higher layer, sum(packetBytes)"
scalar scenarioPRJP1.node[91].lo0.lo 	passedUpPk:count 	1
attr interpolationmode  none
attr source  packetSentToUpper
attr title  "packets passed to higher layer, count"
scalar scenarioPRJP1.node[91].lo0.lo 	passedUpPk:sum(packetBytes) 	56
attr interpolationmode  none
attr source  packetSentToUpper
attr title  "packets passed to higher layer, sum(packetBytes)"
scalar scenarioPRJP1.node[51].app 	"Total sent" 	372
scalar scenarioPRJP1.node[51].app 	"Total received" 	14
scalar scenarioPRJP1.node[51].app 	"Total deleted" 	0
scalar scenarioPRJP1.node[51].app 	dropPk:count 	0
attr interpolationmode  none
attr source  dropPk
attr title  "packets dropped, count"
scalar scenarioPRJP1.node[51].app 	dropPk:sum(packetBytes) 	0
attr interpolationmode  none
attr source  dropPk
attr title  "packets dropped, sum(packetBytes)"
scalar scenarioPRJP1.node[51].app 	outOfOrderPk:count 	1
attr interpolationmode  none
attr source  outOfOrderPk
attr title  "packets received out of order, count"
scalar scenarioPRJP1.node[51].app 	outOfOrderPk:sum(packetBytes) 	512
attr interpolationmode  none
attr source  outOfOrderPk
attr title  "packets received out of order, sum(packetBytes)"
scalar scenarioPRJP1.node[51].app 	rcvdPk:count 	14
attr interpolationmode  none
attr source  rcvdPk
attr title  "packets received, count"
scalar scenarioPRJP1.node[51].app 	rcvdPk:sum(packetBytes) 	7168
attr interpolationmode  none
attr source  rcvdPk
attr title  "packets received, sum(packetBytes)"
statistic scenarioPRJP1.node[51].app 	endToEndDelay:histogram
field count 14
field mean 0.4401030775925
field stddev 0.65429335005459
field sum 6.161443086295
field sqrsum 8.276967307723
field min 0.001087466573
field max 2.039349380659
attr interpolationmode  none
attr source  messageAge(rcvdPk)
attr title  "delay, histogram"
attr unit  s
bin	-INF	0
bin	-1.01804349047	0
bin	-0.88215936286427	0
bin	-0.74627523525853	0
bin	-0.6103911076528	0
bin	-0.47450698004707	0
bin	-0.33862285244133	0
bin	-0.2027387248356	0
bin	-0.066854597229867	8
bin	0.069029530375867	1
bin	0.2049136579816	0
bin	0.34079778558733	0
bin	0.47668191319307	1
bin	0.6125660407988	0
bin	0.74845016840453	0
bin	0.88433429601027	1
bin	1.020218423616	1
bin	1.1561025512217	0
bin	1.2919866788275	1
bin	1.4278708064332	0
bin	1.5637549340389	0
bin	1.6996390616447	0
bin	1.8355231892504	0
bin	1.9714073168561	1
bin	2.1072914444619	0
bin	2.2431755720676	0
bin	2.3790596996733	0
bin	2.5149438272791	0
bin	2.6508279548848	0
bin	2.7867120824905	0
bin	2.9225962100963	0
bin	3.058480337702	0
scalar scenarioPRJP1.node[51].app 	sentPk:count 	372
attr interpolationmode  none
attr source  sentPk
attr title  "packets sent, count"
scalar scenarioPRJP1.node[51].app 	sentPk:sum(packetBytes) 	190464
attr interpolationmode  none
attr source  sentPk
attr title  "packets sent, sum(packetBytes)"
scalar scenarioPRJP1.node[51].udp 	droppedPkBadChecksum:count 	0
attr interpolationmode  none
attr title  "packets dropped (checksum error), count"
scalar scenarioPRJP1.node[51].udp 	droppedPkWrongPort:count 	0
attr interpolationmode  none
attr title  "packets dropped (wrong port), count"
scalar scenarioPRJP1.node[51].udp 	passedUpPk:count 	15
attr interpolationmode  none
attr title  "packets passed up, count"
scalar scenarioPRJP1.node[51].udp 	rcvdPk:count 	15
attr interpolationmode  none
attr source  rcvdPk
attr title  "packets received, count"
scalar scenarioPRJP1.node[51].udp 	rcvdPk:sum(packetBytes) 	7800
attr interpolationmode  none
attr source  rcvdPk
attr title  "packets received, sum(packetBytes)"
scalar scenarioPRJP1.node[51].udp 	sentPk:count 	372
attr interpolationmode  none
attr source  sentPk
attr title  "packets sent, count"
scalar scenarioPRJP1.node[51].udp 	sentPk:sum(packetBytes) 	193440
attr interpolationmode  none
attr source  sentPk
attr title  "packets sent, sum(packetBytes)"
scalar scenarioPRJP1.node[51].networkLayer.arp 	failedARPResolution:count 	16
attr title  "ARP failed resolutions, count"
scalar scenarioPRJP1.node[51].networkLayer.arp 	completedARPResolution:count 	320
attr title  "ARP completed resolutions, count"
scalar scenarioPRJP1.node[51].networkLayer.arp 	initiatedARPResolution:count 	33
attr title  "ARP initiated resolutions, count"
scalar scenarioPRJP1.node[51].networkLayer.arp 	sentReply:count 	13
attr title  "ARP replies sent, count"
scalar scenarioPRJP1.node[51].networkLayer.arp 	sentReq:count 	82
attr title  "ARP request sent, count"
scalar scenarioPRJP1.node[51].mobility 	startTime 	4.9
scalar scenarioPRJP1.node[51].mobility 	totalTime 	156.3
scalar scenarioPRJP1.node[51].mobility 	stopTime 	161.3
scalar scenarioPRJP1.node[51].mobility 	minSpeed 	2.4755773188452e-13
scalar scenarioPRJP1.node[51].mobility 	maxSpeed 	16.867345873722
scalar scenarioPRJP1.node[51].mobility 	totalDistance 	1484.677658927
scalar scenarioPRJP1.node[51].mobility 	totalCO2Emission 	437.61973595771
scalar scenarioPRJP1.node[51].wlan.mgmt 	dataQueueLen:max 	1
attr interpolationmode  sample-hold
attr title  "data queue length, max"
scalar scenarioPRJP1.node[51].wlan.mgmt 	dataQueueLen:timeavg 	0
attr interpolationmode  sample-hold
attr title  "data queue length, timeavg"
scalar scenarioPRJP1.node[51].wlan.mgmt 	dropPkByQueue:count 	0
attr interpolationmode  none
attr source  dropPkByQueue
attr title  "packets dropped by queue, count"
scalar scenarioPRJP1.node[51].wlan.mgmt 	dropPkByQueue:sum(packetBytes) 	0
attr interpolationmode  none
attr source  dropPkByQueue
attr title  "packets dropped by queue, sum(packetBytes)"
scalar scenarioPRJP1.node[51].wlan.mac 	"number of received packets" 	101
scalar scenarioPRJP1.node[51].wlan.mac 	"number of collisions" 	5526
scalar scenarioPRJP1.node[51].wlan.mac 	"number of internal collisions" 	0
scalar scenarioPRJP1.node[51].wlan.mac 	"number of retry for AC 0" 	617
scalar scenarioPRJP1.node[51].wlan.mac 	"number of retry for AC 1" 	0
scalar scenarioPRJP1.node[51].wlan.mac 	"number of retry for AC 2" 	0
scalar scenarioPRJP1.node[51].wlan.mac 	"number of retry for AC 3" 	0
scalar scenarioPRJP1.node[51].wlan.mac 	"sent and received bits" 	3756736
scalar scenarioPRJP1.node[51].wlan.mac 	"sent packet within AC 0" 	107
scalar scenarioPRJP1.node[51].wlan.mac 	"sent packet within AC 1" 	2
scalar scenarioPRJP1.node[51].wlan.mac 	"sent packet within AC 2" 	0
scalar scenarioPRJP1.node[51].wlan.mac 	"sent packet within AC 3" 	0
scalar scenarioPRJP1.node[51].wlan.mac 	"sent in TXOP " 	0
scalar scenarioPRJP1.node[51].wlan.mac 	"sentWithoutRetry AC 0" 	65
scalar scenarioPRJP1.node[51].wlan.mac 	"sentWithoutRetry AC 1" 	2
scalar scenarioPRJP1.node[51].wlan.mac 	"sentWithoutRetry AC 2" 	0
scalar scenarioPRJP1.node[51].wlan.mac 	"sentWithoutRetry AC 3" 	0
scalar scenarioPRJP1.node[51].wlan.mac 	"numGivenUp AC 0" 	86
scalar scenarioPRJP1.node[51].wlan.mac 	"numGivenUp AC 1" 	0
scalar scenarioPRJP1.node[51].wlan.mac 	"numGivenUp AC 2" 	0
scalar scenarioPRJP1.node[51].wlan.mac 	"numGivenUp AC 3" 	0
scalar scenarioPRJP1.node[51].wlan.mac 	"numDropped AC 0" 	0
scalar scenarioPRJP1.node[51].wlan.mac 	"numDropped AC 1" 	0
scalar scenarioPRJP1.node[51].wlan.mac 	"numDropped AC 2" 	0
scalar scenarioPRJP1.node[51].wlan.mac 	"numDropped AC 3" 	0
scalar scenarioPRJP1.node[51].wlan.mac 	rcvdPkFromLL:count 	13841
attr interpolationmode  none
attr source  packetReceivedFromLower
attr title  "packets received from lower layer, count"
scalar scenarioPRJP1.node[51].wlan.mac 	rcvdPkFromLL:sum(packetBytes) 	8693216
attr interpolationmode  none
attr source  packetReceivedFromLower
attr title  "packets received from lower layer, sum(packetBytes)"
scalar scenarioPRJP1.node[51].wlan.mac 	sentDownPk:count 	1383
attr interpolationmode  none
attr source  packetSentToLower
attr title  "packets sent to lower layer, count"
scalar scenarioPRJP1.node[51].wlan.mac 	sentDownPk:sum(packetBytes) 	847262
attr interpolationmode  none
attr source  packetSentToLower
attr title  "packets sent to lower layer, sum(packetBytes)"
scalar scenarioPRJP1.node[51].wlan.mac 	rcvdPkFromHL:count 	665
attr interpolationmode  none
attr source  packetReceivedFromUpper
attr title  "packets received from higher layer, count"
scalar scenarioPRJP1.node[51].wlan.mac 	rcvdPkFromHL:sum(packetBytes) 	515032
attr interpolationmode  none
attr source  packetReceivedFromUpper
attr title  "packets received from higher layer, sum(packetBytes)"
scalar scenarioPRJP1.node[51].wlan.mac 	passedUpPk:count 	3999
attr interpolationmode  none
attr source  packetSentToUpper
attr title  "packets passed to higher layer, count"
scalar scenarioPRJP1.node[51].wlan.mac 	passedUpPk:sum(packetBytes) 	3619364
attr interpolationmode  none
attr source  packetSentToUpper
attr title  "packets passed to higher layer, sum(packetBytes)"
statistic scenarioPRJP1.node[51].wlan.radio 	radioChannel:histogram
field count 1
field mean 3
field stddev nan
field sum 3
field sqrsum 9
field min 3
field max 3
attr interpolationmode  sample-hold
attr source  radioChannelChanged
attr title  "Radio channel, histogram"
bin	-INF	0
bin	2	0
bin	3	1
bin	4	0
scalar scenarioPRJP1.node[51].wlan.radio 	transmissionState:count 	5532
attr interpolationmode  sample-hold
attr source  transmissionStateChanged
attr title  "Radio transmission state, count"
scalar scenarioPRJP1.node[51].wlan.radio 	receptionState:count 	32698
attr interpolationmode  sample-hold
attr source  receptionStateChanged
attr title  "Radio reception state, count"
scalar scenarioPRJP1.node[51].wlan.radio 	radioMode:count 	2768
attr interpolationmode  sample-hold
attr source  radioModeChanged
attr title  "Radio mode, count"
statistic scenarioPRJP1.node[51].wlan.radio 	symbolErrorRate:histogram
field count 0
field mean nan
field stddev nan
field sum 0
field sqrsum 0
field min nan
field max nan
attr source  symbolErrorRate
attr title  "Symbol error rate, histogram"
bin	-INF	0
bin	-0.5	0
bin	-0.46666666666667	0
bin	-0.43333333333333	0
bin	-0.4	0
bin	-0.36666666666667	0
bin	-0.33333333333333	0
bin	-0.3	0
bin	-0.26666666666667	0
bin	-0.23333333333333	0
bin	-0.2	0
bin	-0.16666666666667	0
bin	-0.13333333333333	0
bin	-0.1	0
bin	-0.066666666666667	0
bin	-0.033333333333333	0
bin	0	0
bin	0.033333333333333	0
bin	0.066666666666667	0
bin	0.1	0
bin	0.13333333333333	0
bin	0.16666666666667	0
bin	0.2	0
bin	0.23333333333333	0
bin	0.26666666666667	0
bin	0.3	0
bin	0.33333333333333	0
bin	0.36666666666667	0
bin	0.4	0
bin	0.43333333333333	0
bin	0.46666666666667	0
bin	0.5	0
statistic scenarioPRJP1.node[51].wlan.radio 	bitErrorRate:histogram
field count 0
field mean nan
field stddev nan
field sum 0
field sqrsum 0
field min nan
field max nan
attr source  bitErrorRate
attr title  "Bit error rate, histogram"
bin	-INF	0
bin	-0.5	0
bin	-0.46666666666667	0
bin	-0.43333333333333	0
bin	-0.4	0
bin	-0.36666666666667	0
bin	-0.33333333333333	0
bin	-0.3	0
bin	-0.26666666666667	0
bin	-0.23333333333333	0
bin	-0.2	0
bin	-0.16666666666667	0
bin	-0.13333333333333	0
bin	-0.1	0
bin	-0.066666666666667	0
bin	-0.033333333333333	0
bin	0	0
bin	0.033333333333333	0
bin	0.066666666666667	0
bin	0.1	0
bin	0.13333333333333	0
bin	0.16666666666667	0
bin	0.2	0
bin	0.23333333333333	0
bin	0.26666666666667	0
bin	0.3	0
bin	0.33333333333333	0
bin	0.36666666666667	0
bin	0.4	0
bin	0.43333333333333	0
bin	0.46666666666667	0
bin	0.5	0
statistic scenarioPRJP1.node[51].wlan.radio 	packetErrorRate:histogram
field count 13841
field mean 0.37846449275792
field stddev 0.47474654129849
field sum 5238.3270442624
field sqrsum 5101.8392017992
field min 0
field max 1
attr source  packetErrorRate
attr title  "Packet error rate, histogram"
bin	-INF	0
bin	-0.49999999998471	0
bin	-0.43333333332009	0
bin	-0.36666666665546	0
bin	-0.29999999999083	0
bin	-0.2333333333262	0
bin	-0.16666666666157	0
bin	-0.099999999996943	0
bin	-0.033333333332314	8027
bin	0.033333333332314	244
bin	0.099999999996943	104
bin	0.16666666666157	76
bin	0.2333333333262	61
bin	0.29999999999083	53
bin	0.36666666665546	42
bin	0.43333333332009	51
bin	0.49999999998471	40
bin	0.56666666664934	35
bin	0.63333333331397	26
bin	0.6999999999786	20
bin	0.76666666664323	37
bin	0.83333333330786	50
bin	0.89999999997248	99
bin	0.96666666663711	4876
bin	1.0333333333017	0
bin	1.0999999999664	0
bin	1.166666666631	0
bin	1.2333333332956	0
bin	1.2999999999603	0
bin	1.3666666666249	0
bin	1.4333333332895	0
bin	1.4999999999541	0
statistic scenarioPRJP1.node[51].wlan.radio 	minSNIR:histogram
field count 13841
field mean 386.33590642556
field stddev 5917.4209779211
field sum 5347275.2808361
field sqrsum 486685499496.9
field min 0.0001604262164559
field max 403149.37760205
attr source  minSNIR
attr title  "Min SNIR, histogram"
bin	-INF	0
bin	-14725.287980541	0
bin	-12761.689629817	0
bin	-10798.091279094	0
bin	-8834.4929283709	0
bin	-6870.8945776476	0
bin	-4907.2962269243	0
bin	-2943.697876201	0
bin	-980.09952547776	13415
bin	983.49882524551	207
bin	2947.0971759688	70
bin	4910.6955266921	35
bin	6874.2938774153	20
bin	8837.8922281386	13
bin	10801.490578862	13
bin	12765.088929585	8
bin	14728.687280308	6
bin	16692.285631032	6
bin	18655.883981755	2
bin	20619.482332478	6
bin	22583.080683202	1
bin	24546.679033925	3
bin	26510.277384648	1
bin	28473.875735371	3
bin	30437.474086095	2
bin	32401.072436818	4
bin	34364.670787541	2
bin	36328.269138264	1
bin	38291.867488988	2
bin	40255.465839711	0
bin	42219.064190434	0
bin	44182.662541158	21
scalar scenarioPRJP1.node[51].lo0.lo 	droppedPkBitError:count 	0
attr interpolationmode  none
attr source  dropPkBitError
attr title  "packets dropped/bit error, count"
scalar scenarioPRJP1.node[51].lo0.lo 	droppedPkBitError:sum(packetBytes) 	0
attr interpolationmode  none
attr source  dropPkBitError
attr title  "packets dropped/bit error, sum(packetBytes)"
scalar scenarioPRJP1.node[51].lo0.lo 	rcvdPkFromHL:count 	2
attr interpolationmode  none
attr source  packetReceivedFromUpper
attr title  "packets received from higher layer, count"
scalar scenarioPRJP1.node[51].lo0.lo 	rcvdPkFromHL:sum(packetBytes) 	112
attr interpolationmode  none
attr source  packetReceivedFromUpper
attr title  "packets received from higher layer, sum(packetBytes)"
scalar scenarioPRJP1.node[51].lo0.lo 	passedUpPk:count 	2
attr interpolationmode  none
attr source  packetSentToUpper
attr title  "packets passed to higher layer, count"
scalar scenarioPRJP1.node[51].lo0.lo 	passedUpPk:sum(packetBytes) 	112
attr interpolationmode  none
attr source  packetSentToUpper
attr title  "packets passed to higher layer, sum(packetBytes)"
scalar scenarioPRJP1.node[34].app 	"Total sent" 	602
scalar scenarioPRJP1.node[34].app 	"Total received" 	36
scalar scenarioPRJP1.node[34].app 	"Total deleted" 	0
scalar scenarioPRJP1.node[34].app 	dropPk:count 	0
attr interpolationmode  none
attr source  dropPk
attr title  "packets dropped, count"
scalar scenarioPRJP1.node[34].app 	dropPk:sum(packetBytes) 	0
attr interpolationmode  none
attr source  dropPk
attr title  "packets dropped, sum(packetBytes)"
scalar scenarioPRJP1.node[34].app 	outOfOrderPk:count 	0
attr interpolationmode  none
attr source  outOfOrderPk
attr title  "packets received out of order, count"
scalar scenarioPRJP1.node[34].app 	outOfOrderPk:sum(packetBytes) 	0
attr interpolationmode  none
attr source  outOfOrderPk
attr title  "packets received out of order, sum(packetBytes)"
scalar scenarioPRJP1.node[34].app 	rcvdPk:count 	36
attr interpolationmode  none
attr source  rcvdPk
attr title  "packets received, count"
scalar scenarioPRJP1.node[34].app 	rcvdPk:sum(packetBytes) 	18432
attr interpolationmode  none
attr source  rcvdPk
attr title  "packets received, sum(packetBytes)"
statistic scenarioPRJP1.node[34].app 	endToEndDelay:histogram
field count 36
field mean 0.18548469079753
field stddev 0.4969387306822
field sum 6.677448868711
field sqrsum 9.8817481105503
field min 0.000945045439
field max 2.50446623806
attr interpolationmode  none
attr source  messageAge(rcvdPk)
attr title  "delay, histogram"
attr unit  s
bin	-INF	0
bin	-1.2508155508715	0
bin	-1.0839141380301	0
bin	-0.9170127251887	0
bin	-0.7501113123473	0
bin	-0.5832098995059	0
bin	-0.4163084866645	0
bin	-0.2494070738231	0
bin	-0.0825056609817	31
bin	0.0843957518597	0
bin	0.2512971647011	0
bin	0.4181985775425	1
bin	0.5850999903839	0
bin	0.7520014032253	1
bin	0.9189028160667	0
bin	1.0858042289081	2
bin	1.2527056417495	0
bin	1.4196070545909	0
bin	1.5865084674323	0
bin	1.7534098802737	0
bin	1.9203112931151	0
bin	2.0872127059565	0
bin	2.2541141187979	0
bin	2.4210155316393	1
bin	2.5879169444807	0
bin	2.7548183573221	0
bin	2.9217197701635	0
bin	3.0886211830049	0
bin	3.2555225958463	0
bin	3.4224240086877	0
bin	3.5893254215291	0
bin	3.7562268343705	0
scalar scenarioPRJP1.node[34].app 	sentPk:count 	602
attr interpolationmode  none
attr source  sentPk
attr title  "packets sent, count"
scalar scenarioPRJP1.node[34].app 	sentPk:sum(packetBytes) 	308224
attr interpolationmode  none
attr source  sentPk
attr title  "packets sent, sum(packetBytes)"
scalar scenarioPRJP1.node[34].udp 	droppedPkBadChecksum:count 	0
attr interpolationmode  none
attr title  "packets dropped (checksum error), count"
scalar scenarioPRJP1.node[34].udp 	droppedPkWrongPort:count 	0
attr interpolationmode  none
attr title  "packets dropped (wrong port), count"
scalar scenarioPRJP1.node[34].udp 	passedUpPk:count 	36
attr interpolationmode  none
attr title  "packets passed up, count"
scalar scenarioPRJP1.node[34].udp 	rcvdPk:count 	36
attr interpolationmode  none
attr source  rcvdPk
attr title  "packets received, count"
scalar scenarioPRJP1.node[34].udp 	rcvdPk:sum(packetBytes) 	18720
attr interpolationmode  none
attr source  rcvdPk
attr title  "packets received, sum(packetBytes)"
scalar scenarioPRJP1.node[34].udp 	sentPk:count 	602
attr interpolationmode  none
attr source  sentPk
attr title  "packets sent, count"
scalar scenarioPRJP1.node[34].udp 	sentPk:sum(packetBytes) 	313040
attr interpolationmode  none
attr source  sentPk
attr title  "packets sent, sum(packetBytes)"
scalar scenarioPRJP1.node[34].networkLayer.arp 	failedARPResolution:count 	43
attr title  "ARP failed resolutions, count"
scalar scenarioPRJP1.node[34].networkLayer.arp 	completedARPResolution:count 	608
attr title  "ARP completed resolutions, count"
scalar scenarioPRJP1.node[34].networkLayer.arp 	initiatedARPResolution:count 	64
attr title  "ARP initiated resolutions, count"
scalar scenarioPRJP1.node[34].networkLayer.arp 	sentReply:count 	16
attr title  "ARP replies sent, count"
scalar scenarioPRJP1.node[34].networkLayer.arp 	sentReq:count 	167
attr title  "ARP request sent, count"
scalar scenarioPRJP1.node[34].mobility 	startTime 	2.5
scalar scenarioPRJP1.node[34].mobility 	totalTime 	241.8
scalar scenarioPRJP1.node[34].mobility 	stopTime 	244.4
scalar scenarioPRJP1.node[34].mobility 	minSpeed 	2.4754855969167e-13
scalar scenarioPRJP1.node[34].mobility 	maxSpeed 	20.237944122461
scalar scenarioPRJP1.node[34].mobility 	totalDistance 	2233.111448814
scalar scenarioPRJP1.node[34].mobility 	totalCO2Emission 	721.98315869245
scalar scenarioPRJP1.node[34].wlan.mgmt 	dataQueueLen:max 	1
attr interpolationmode  sample-hold
attr title  "data queue length, max"
scalar scenarioPRJP1.node[34].wlan.mgmt 	dataQueueLen:timeavg 	0
attr interpolationmode  sample-hold
attr title  "data queue length, timeavg"
scalar scenarioPRJP1.node[34].wlan.mgmt 	dropPkByQueue:count 	0
attr interpolationmode  none
attr source  dropPkByQueue
attr title  "packets dropped by queue, count"
scalar scenarioPRJP1.node[34].wlan.mgmt 	dropPkByQueue:sum(packetBytes) 	0
attr interpolationmode  none
attr source  dropPkByQueue
attr title  "packets dropped by queue, sum(packetBytes)"
scalar scenarioPRJP1.node[34].wlan.mac 	"number of received packets" 	192
scalar scenarioPRJP1.node[34].wlan.mac 	"number of collisions" 	9456
scalar scenarioPRJP1.node[34].wlan.mac 	"number of internal collisions" 	0
scalar scenarioPRJP1.node[34].wlan.mac 	"number of retry for AC 0" 	1217
scalar scenarioPRJP1.node[34].wlan.mac 	"number of retry for AC 1" 	8
scalar scenarioPRJP1.node[34].wlan.mac 	"number of retry for AC 2" 	0
scalar scenarioPRJP1.node[34].wlan.mac 	"number of retry for AC 3" 	0
scalar scenarioPRJP1.node[34].wlan.mac 	"sent and received bits" 	9139872
scalar scenarioPRJP1.node[34].wlan.mac 	"sent packet within AC 0" 	162
scalar scenarioPRJP1.node[34].wlan.mac 	"sent packet within AC 1" 	5
scalar scenarioPRJP1.node[34].wlan.mac 	"sent packet within AC 2" 	0
scalar scenarioPRJP1.node[34].wlan.mac 	"sent packet within AC 3" 	0
scalar scenarioPRJP1.node[34].wlan.mac 	"sent in TXOP " 	0
scalar scenarioPRJP1.node[34].wlan.mac 	"sentWithoutRetry AC 0" 	104
scalar scenarioPRJP1.node[34].wlan.mac 	"sentWithoutRetry AC 1" 	4
scalar scenarioPRJP1.node[34].wlan.mac 	"sentWithoutRetry AC 2" 	0
scalar scenarioPRJP1.node[34].wlan.mac 	"sentWithoutRetry AC 3" 	0
scalar scenarioPRJP1.node[34].wlan.mac 	"numGivenUp AC 0" 	178
scalar scenarioPRJP1.node[34].wlan.mac 	"numGivenUp AC 1" 	1
scalar scenarioPRJP1.node[34].wlan.mac 	"numGivenUp AC 2" 	0
scalar scenarioPRJP1.node[34].wlan.mac 	"numGivenUp AC 3" 	0
scalar scenarioPRJP1.node[34].wlan.mac 	"numDropped AC 0" 	0
scalar scenarioPRJP1.node[34].wlan.mac 	"numDropped AC 1" 	0
scalar scenarioPRJP1.node[34].wlan.mac 	"numDropped AC 2" 	0
scalar scenarioPRJP1.node[34].wlan.mac 	"numDropped AC 3" 	0
scalar scenarioPRJP1.node[34].wlan.mac 	rcvdPkFromLL:count 	26396
attr interpolationmode  none
attr source  packetReceivedFromLower
attr title  "packets received from lower layer, count"
scalar scenarioPRJP1.node[34].wlan.mac 	rcvdPkFromLL:sum(packetBytes) 	16388710
attr interpolationmode  none
attr source  packetReceivedFromLower
attr title  "packets received from lower layer, sum(packetBytes)"
scalar scenarioPRJP1.node[34].wlan.mac 	sentDownPk:count 	2930
attr interpolationmode  none
attr source  packetSentToLower
attr title  "packets sent to lower layer, count"
scalar scenarioPRJP1.node[34].wlan.mac 	sentDownPk:sum(packetBytes) 	1924432
attr interpolationmode  none
attr source  packetSentToLower
attr title  "packets sent to lower layer, sum(packetBytes)"
scalar scenarioPRJP1.node[34].wlan.mac 	rcvdPkFromHL:count 	1513
attr interpolationmode  none
attr source  packetReceivedFromUpper
attr title  "packets received from higher layer, count"
scalar scenarioPRJP1.node[34].wlan.mac 	rcvdPkFromHL:sum(packetBytes) 	1242032
attr interpolationmode  none
attr source  packetReceivedFromUpper
attr title  "packets received from higher layer, sum(packetBytes)"
scalar scenarioPRJP1.node[34].wlan.mac 	passedUpPk:count 	7212
attr interpolationmode  none
attr source  packetSentToUpper
attr title  "packets passed to higher layer, count"
scalar scenarioPRJP1.node[34].wlan.mac 	passedUpPk:sum(packetBytes) 	6672252
attr interpolationmode  none
attr source  packetSentToUpper
attr title  "packets passed to higher layer, sum(packetBytes)"
statistic scenarioPRJP1.node[34].wlan.radio 	radioChannel:histogram
field count 1
field mean 3
field stddev nan
field sum 3
field sqrsum 9
field min 3
field max 3
attr interpolationmode  sample-hold
attr source  radioChannelChanged
attr title  "Radio channel, histogram"
bin	-INF	0
bin	2	0
bin	3	1
bin	4	0
scalar scenarioPRJP1.node[34].wlan.radio 	transmissionState:count 	11720
attr interpolationmode  sample-hold
attr source  transmissionStateChanged
attr title  "Radio transmission state, count"
scalar scenarioPRJP1.node[34].wlan.radio 	receptionState:count 	64528
attr interpolationmode  sample-hold
attr source  receptionStateChanged
attr title  "Radio reception state, count"
scalar scenarioPRJP1.node[34].wlan.radio 	radioMode:count 	5862
attr interpolationmode  sample-hold
attr source  radioModeChanged
attr title  "Radio mode, count"
statistic scenarioPRJP1.node[34].wlan.radio 	symbolErrorRate:histogram
field count 0
field mean nan
field stddev nan
field sum 0
field sqrsum 0
field min nan
field max nan
attr source  symbolErrorRate
attr title  "Symbol error rate, histogram"
bin	-INF	0
bin	-0.5	0
bin	-0.46666666666667	0
bin	-0.43333333333333	0
bin	-0.4	0
bin	-0.36666666666667	0
bin	-0.33333333333333	0
bin	-0.3	0
bin	-0.26666666666667	0
bin	-0.23333333333333	0
bin	-0.2	0
bin	-0.16666666666667	0
bin	-0.13333333333333	0
bin	-0.1	0
bin	-0.066666666666667	0
bin	-0.033333333333333	0
bin	0	0
bin	0.033333333333333	0
bin	0.066666666666667	0
bin	0.1	0
bin	0.13333333333333	0
bin	0.16666666666667	0
bin	0.2	0
bin	0.23333333333333	0
bin	0.26666666666667	0
bin	0.3	0
bin	0.33333333333333	0
bin	0.36666666666667	0
bin	0.4	0
bin	0.43333333333333	0
bin	0.46666666666667	0
bin	0.5	0
statistic scenarioPRJP1.node[34].wlan.radio 	bitErrorRate:histogram
field count 0
field mean nan
field stddev nan
field sum 0
field sqrsum 0
field min nan
field max nan
attr source  bitErrorRate
attr title  "Bit error rate, histogram"
bin	-INF	0
bin	-0.5	0
bin	-0.46666666666667	0
bin	-0.43333333333333	0
bin	-0.4	0
bin	-0.36666666666667	0
bin	-0.33333333333333	0
bin	-0.3	0
bin	-0.26666666666667	0
bin	-0.23333333333333	0
bin	-0.2	0
bin	-0.16666666666667	0
bin	-0.13333333333333	0
bin	-0.1	0
bin	-0.066666666666667	0
bin	-0.033333333333333	0
bin	0	0
bin	0.033333333333333	0
bin	0.066666666666667	0
bin	0.1	0
bin	0.13333333333333	0
bin	0.16666666666667	0
bin	0.2	0
bin	0.23333333333333	0
bin	0.26666666666667	0
bin	0.3	0
bin	0.33333333333333	0
bin	0.36666666666667	0
bin	0.4	0
bin	0.43333333333333	0
bin	0.46666666666667	0
bin	0.5	0
statistic scenarioPRJP1.node[34].wlan.radio 	packetErrorRate:histogram
field count 26396
field mean 0.34066056960454
field stddev 0.46543719636051
field sum 8992.0763952815
field sqrsum 8781.241798982
field min 0
field max 1
attr source  packetErrorRate
attr title  "Packet error rate, histogram"
bin	-INF	0
bin	-0.5	0
bin	-0.43333333333333	0
bin	-0.36666666666667	0
bin	-0.3	0
bin	-0.23333333333333	0
bin	-0.16666666666667	0
bin	-0.1	0
bin	-0.033333333333333	16528
bin	0.033333333333333	358
bin	0.1	162
bin	0.16666666666667	132
bin	0.23333333333333	93
bin	0.3	79
bin	0.36666666666667	77
bin	0.43333333333333	56
bin	0.5	47
bin	0.56666666666667	40
bin	0.63333333333333	54
bin	0.7	62
bin	0.76666666666667	65
bin	0.83333333333333	80
bin	0.9	118
bin	0.96666666666667	8445
bin	1.0333333333333	0
bin	1.1	0
bin	1.1666666666667	0
bin	1.2333333333333	0
bin	1.3	0
bin	1.3666666666667	0
bin	1.4333333333333	0
bin	1.5	0
statistic scenarioPRJP1.node[34].wlan.radio 	minSNIR:histogram
field count 26396
field mean 1132.6060170889
field stddev 14971.131797437
field sum 29896268.427078
field sqrsum 5949898404192.7
field min 0.00017383027612476
field max 969114.61733591
attr source  minSNIR
attr title  "Min SNIR, histogram"
bin	-INF	0
bin	-10280.194035952	0
bin	-8909.3966588052	0
bin	-7538.5992816582	0
bin	-6167.8019045111	0
bin	-4797.0045273641	0
bin	-3426.2071502171	0
bin	-2055.4097730701	0
bin	-684.61239592307	24095
bin	686.18498122395	1225
bin	2056.982358371	342
bin	3427.779735518	146
bin	4798.577112665	104
bin	6169.374489812	68
bin	7540.171866959	59
bin	8910.9692441061	36
bin	10281.766621253	24
bin	11652.5639984	17
bin	13023.361375547	22
bin	14394.158752694	10
bin	15764.956129841	12
bin	17135.753506988	9
bin	18506.550884135	11
bin	19877.348261282	8
bin	21248.145638429	8
bin	22618.943015576	11
bin	23989.740392723	12
bin	25360.53776987	4
bin	26731.335147017	3
bin	28102.132524164	5
bin	29472.929901311	6
bin	30843.727278458	159
scalar scenarioPRJP1.node[34].lo0.lo 	droppedPkBitError:count 	0
attr interpolationmode  none
attr source  dropPkBitError
attr title  "packets dropped/bit error, count"
scalar scenarioPRJP1.node[34].lo0.lo 	droppedPkBitError:sum(packetBytes) 	0
attr interpolationmode  none
attr source  dropPkBitError
attr title  "packets dropped/bit error, sum(packetBytes)"
scalar scenarioPRJP1.node[34].lo0.lo 	rcvdPkFromHL:count 	0
attr interpolationmode  none
attr source  packetReceivedFromUpper
attr title  "packets received from higher layer, count"
scalar scenarioPRJP1.node[34].lo0.lo 	rcvdPkFromHL:sum(packetBytes) 	0
attr interpolationmode  none
attr source  packetReceivedFromUpper
attr title  "packets received from higher layer, sum(packetBytes)"
scalar scenarioPRJP1.node[34].lo0.lo 	passedUpPk:count 	0
attr interpolationmode  none
attr source  packetSentToUpper
attr title  "packets passed to higher layer, count"
scalar scenarioPRJP1.node[34].lo0.lo 	passedUpPk:sum(packetBytes) 	0
attr interpolationmode  none
attr source  packetSentToUpper
attr title  "packets passed to higher layer, sum(packetBytes)"
scalar scenarioPRJP1.node[94].app 	"Total sent" 	716
scalar scenarioPRJP1.node[94].app 	"Total received" 	48
scalar scenarioPRJP1.node[94].app 	"Total deleted" 	0
scalar scenarioPRJP1.node[94].app 	dropPk:count 	0
attr interpolationmode  none
attr source  dropPk
attr title  "packets dropped, count"
scalar scenarioPRJP1.node[94].app 	dropPk:sum(packetBytes) 	0
attr interpolationmode  none
attr source  dropPk
attr title  "packets dropped, sum(packetBytes)"
scalar scenarioPRJP1.node[94].app 	outOfOrderPk:count 	0
attr interpolationmode  none
attr source  outOfOrderPk
attr title  "packets received out of order, count"
scalar scenarioPRJP1.node[94].app 	outOfOrderPk:sum(packetBytes) 	0
attr interpolationmode  none
attr source  outOfOrderPk
attr title  "packets received out of order, sum(packetBytes)"
scalar scenarioPRJP1.node[94].app 	rcvdPk:count 	48
attr interpolationmode  none
attr source  rcvdPk
attr title  "packets received, count"
scalar scenarioPRJP1.node[94].app 	rcvdPk:sum(packetBytes) 	24576
attr interpolationmode  none
attr source  rcvdPk
attr title  "packets received, sum(packetBytes)"
statistic scenarioPRJP1.node[94].app 	endToEndDelay:histogram
field count 48
field mean 0.33533028807317
field stddev 0.72049685766488
field sum 16.095853827512
field sqrsum 29.795866230296
field min 0.000945022685
field max 2.683991980234
attr interpolationmode  none
attr source  messageAge(rcvdPk)
attr title  "delay, histogram"
attr unit  s
bin	-INF	0
bin	-1.3405784560895	0
bin	-1.1617086589196	0
bin	-0.98283886174963	0
bin	-0.8039690645797	0
bin	-0.62509926740977	0
bin	-0.44622947023983	0
bin	-0.2673596730699	0
bin	-0.088489875899967	37
bin	0.090379921269967	1
bin	0.2692497184399	1
bin	0.44811951560983	0
bin	0.62698931277977	0
bin	0.8058591099497	0
bin	0.98472890711963	4
bin	1.1635987042896	1
bin	1.3424685014595	0
bin	1.5213382986294	0
bin	1.7002080957994	0
bin	1.8790778929693	0
bin	2.0579476901392	1
bin	2.2368174873092	1
bin	2.4156872844791	0
bin	2.594557081649	2
bin	2.773426878819	0
bin	2.9522966759889	0
bin	3.1311664731588	0
bin	3.3100362703288	0
bin	3.4889060674987	0
bin	3.6677758646686	0
bin	3.8466456618386	0
bin	4.0255154590085	0
scalar scenarioPRJP1.node[94].app 	sentPk:count 	716
attr interpolationmode  none
attr source  sentPk
attr title  "packets sent, count"
scalar scenarioPRJP1.node[94].app 	sentPk:sum(packetBytes) 	366592
attr interpolationmode  none
attr source  sentPk
attr title  "packets sent, sum(packetBytes)"
scalar scenarioPRJP1.node[94].udp 	droppedPkBadChecksum:count 	0
attr interpolationmode  none
attr title  "packets dropped (checksum error), count"
scalar scenarioPRJP1.node[94].udp 	droppedPkWrongPort:count 	0
attr interpolationmode  none
attr title  "packets dropped (wrong port), count"
scalar scenarioPRJP1.node[94].udp 	passedUpPk:count 	48
attr interpolationmode  none
attr title  "packets passed up, count"
scalar scenarioPRJP1.node[94].udp 	rcvdPk:count 	48
attr interpolationmode  none
attr source  rcvdPk
attr title  "packets received, count"
scalar scenarioPRJP1.node[94].udp 	rcvdPk:sum(packetBytes) 	24960
attr interpolationmode  none
attr source  rcvdPk
attr title  "packets received, sum(packetBytes)"
scalar scenarioPRJP1.node[94].udp 	sentPk:count 	716
attr interpolationmode  none
attr source  sentPk
attr title  "packets sent, count"
scalar scenarioPRJP1.node[94].udp 	sentPk:sum(packetBytes) 	372320
attr interpolationmode  none
attr source  sentPk
attr title  "packets sent, sum(packetBytes)"
scalar scenarioPRJP1.node[94].networkLayer.arp 	failedARPResolution:count 	55
attr title  "ARP failed resolutions, count"
scalar scenarioPRJP1.node[94].networkLayer.arp 	completedARPResolution:count 	927
attr title  "ARP completed resolutions, count"
scalar scenarioPRJP1.node[94].networkLayer.arp 	initiatedARPResolution:count 	88
attr title  "ARP initiated resolutions, count"
scalar scenarioPRJP1.node[94].networkLayer.arp 	sentReply:count 	16
attr title  "ARP replies sent, count"
scalar scenarioPRJP1.node[94].networkLayer.arp 	sentReq:count 	224
attr title  "ARP request sent, count"
scalar scenarioPRJP1.node[94].mobility 	startTime 	9.8
scalar scenarioPRJP1.node[94].mobility 	totalTime 	274.8
scalar scenarioPRJP1.node[94].mobility 	stopTime 	284.7
scalar scenarioPRJP1.node[94].mobility 	minSpeed 	2.4755566030523e-13
scalar scenarioPRJP1.node[94].mobility 	maxSpeed 	18.457339168058
scalar scenarioPRJP1.node[94].mobility 	totalDistance 	2201.4036189183
scalar scenarioPRJP1.node[94].mobility 	totalCO2Emission 	708.49653832827
scalar scenarioPRJP1.node[94].wlan.mgmt 	dataQueueLen:max 	1
attr interpolationmode  sample-hold
attr title  "data queue length, max"
scalar scenarioPRJP1.node[94].wlan.mgmt 	dataQueueLen:timeavg 	0
attr interpolationmode  sample-hold
attr title  "data queue length, timeavg"
scalar scenarioPRJP1.node[94].wlan.mgmt 	dropPkByQueue:count 	0
attr interpolationmode  none
attr source  dropPkByQueue
attr title  "packets dropped by queue, count"
scalar scenarioPRJP1.node[94].wlan.mgmt 	dropPkByQueue:sum(packetBytes) 	0
attr interpolationmode  none
attr source  dropPkByQueue
attr title  "packets dropped by queue, sum(packetBytes)"
scalar scenarioPRJP1.node[94].wlan.mac 	"number of received packets" 	308
scalar scenarioPRJP1.node[94].wlan.mac 	"number of collisions" 	13056
scalar scenarioPRJP1.node[94].wlan.mac 	"number of internal collisions" 	0
scalar scenarioPRJP1.node[94].wlan.mac 	"number of retry for AC 0" 	1511
scalar scenarioPRJP1.node[94].wlan.mac 	"number of retry for AC 1" 	7
scalar scenarioPRJP1.node[94].wlan.mac 	"number of retry for AC 2" 	0
scalar scenarioPRJP1.node[94].wlan.mac 	"number of retry for AC 3" 	0
scalar scenarioPRJP1.node[94].wlan.mac 	"sent and received bits" 	9719776
scalar scenarioPRJP1.node[94].wlan.mac 	"sent packet within AC 0" 	300
scalar scenarioPRJP1.node[94].wlan.mac 	"sent packet within AC 1" 	6
scalar scenarioPRJP1.node[94].wlan.mac 	"sent packet within AC 2" 	0
scalar scenarioPRJP1.node[94].wlan.mac 	"sent packet within AC 3" 	0
scalar scenarioPRJP1.node[94].wlan.mac 	"sent in TXOP " 	0
scalar scenarioPRJP1.node[94].wlan.mac 	"sentWithoutRetry AC 0" 	203
scalar scenarioPRJP1.node[94].wlan.mac 	"sentWithoutRetry AC 1" 	5
scalar scenarioPRJP1.node[94].wlan.mac 	"sentWithoutRetry AC 2" 	0
scalar scenarioPRJP1.node[94].wlan.mac 	"sentWithoutRetry AC 3" 	0
scalar scenarioPRJP1.node[94].wlan.mac 	"numGivenUp AC 0" 	207
scalar scenarioPRJP1.node[94].wlan.mac 	"numGivenUp AC 1" 	1
scalar scenarioPRJP1.node[94].wlan.mac 	"numGivenUp AC 2" 	0
scalar scenarioPRJP1.node[94].wlan.mac 	"numGivenUp AC 3" 	0
scalar scenarioPRJP1.node[94].wlan.mac 	"numDropped AC 0" 	0
scalar scenarioPRJP1.node[94].wlan.mac 	"numDropped AC 1" 	0
scalar scenarioPRJP1.node[94].wlan.mac 	"numDropped AC 2" 	0
scalar scenarioPRJP1.node[94].wlan.mac 	"numDropped AC 3" 	0
scalar scenarioPRJP1.node[94].wlan.mac 	rcvdPkFromLL:count 	36964
attr interpolationmode  none
attr source  packetReceivedFromLower
attr title  "packets received from lower layer, count"
scalar scenarioPRJP1.node[94].wlan.mac 	rcvdPkFromLL:sum(packetBytes) 	23395156
attr interpolationmode  none
attr source  packetReceivedFromLower
attr title  "packets received from lower layer, sum(packetBytes)"
scalar scenarioPRJP1.node[94].wlan.mac 	sentDownPk:count 	3556
attr interpolationmode  none
attr source  packetSentToLower
attr title  "packets sent to lower layer, count"
scalar scenarioPRJP1.node[94].wlan.mac 	sentDownPk:sum(packetBytes) 	2172212
attr interpolationmode  none
attr source  packetSentToLower
attr title  "packets sent to lower layer, sum(packetBytes)"
scalar scenarioPRJP1.node[94].wlan.mac 	rcvdPkFromHL:count 	1730
attr interpolationmode  none
attr source  packetReceivedFromUpper
attr title  "packets received from higher layer, count"
scalar scenarioPRJP1.node[94].wlan.mac 	rcvdPkFromHL:sum(packetBytes) 	1329688
attr interpolationmode  none
attr source  packetReceivedFromUpper
attr title  "packets received from higher layer, sum(packetBytes)"
scalar scenarioPRJP1.node[94].wlan.mac 	passedUpPk:count 	10630
attr interpolationmode  none
attr source  packetSentToUpper
attr title  "packets passed to higher layer, count"
scalar scenarioPRJP1.node[94].wlan.mac 	passedUpPk:sum(packetBytes) 	9785400
attr interpolationmode  none
attr source  packetSentToUpper
attr title  "packets passed to higher layer, sum(packetBytes)"
statistic scenarioPRJP1.node[94].wlan.radio 	radioChannel:histogram
field count 1
field mean 3
field stddev nan
field sum 3
field sqrsum 9
field min 3
field max 3
attr interpolationmode  sample-hold
attr source  radioChannelChanged
attr title  "Radio channel, histogram"
bin	-INF	0
bin	2	0
bin	3	1
bin	4	0
scalar scenarioPRJP1.node[94].wlan.radio 	transmissionState:count 	14224
attr interpolationmode  sample-hold
attr source  transmissionStateChanged
attr title  "Radio transmission state, count"
scalar scenarioPRJP1.node[94].wlan.radio 	receptionState:count 	89812
attr interpolationmode  sample-hold
attr source  receptionStateChanged
attr title  "Radio reception state, count"
scalar scenarioPRJP1.node[94].wlan.radio 	radioMode:count 	7114
attr interpolationmode  sample-hold
attr source  radioModeChanged
attr title  "Radio mode, count"
statistic scenarioPRJP1.node[94].wlan.radio 	symbolErrorRate:histogram
field count 0
field mean nan
field stddev nan
field sum 0
field sqrsum 0
field min nan
field max nan
attr source  symbolErrorRate
attr title  "Symbol error rate, histogram"
bin	-INF	0
bin	-0.5	0
bin	-0.46666666666667	0
bin	-0.43333333333333	0
bin	-0.4	0
bin	-0.36666666666667	0
bin	-0.33333333333333	0
bin	-0.3	0
bin	-0.26666666666667	0
bin	-0.23333333333333	0
bin	-0.2	0
bin	-0.16666666666667	0
bin	-0.13333333333333	0
bin	-0.1	0
bin	-0.066666666666667	0
bin	-0.033333333333333	0
bin	0	0
bin	0.033333333333333	0
bin	0.066666666666667	0
bin	0.1	0
bin	0.13333333333333	0
bin	0.16666666666667	0
bin	0.2	0
bin	0.23333333333333	0
bin	0.26666666666667	0
bin	0.3	0
bin	0.33333333333333	0
[...]
attr title  "packets received from higher layer, sum(packetBytes)"
scalar scenarioPRJP1.node[79].wlan.mac 	passedUpPk:count 	23064
attr interpolationmode  none
attr source  packetSentToUpper
attr title  "packets passed to higher layer, count"
scalar scenarioPRJP1.node[79].wlan.mac 	passedUpPk:sum(packetBytes) 	21655296
attr interpolationmode  none
attr source  packetSentToUpper
attr title  "packets passed to higher layer, sum(packetBytes)"
statistic scenarioPRJP1.node[79].wlan.radio 	radioChannel:histogram
field count 1
field mean 3
field stddev nan
field sum 3
field sqrsum 9
field min 3
field max 3
attr interpolationmode  sample-hold
attr source  radioChannelChanged
attr title  "Radio channel, histogram"
bin	-INF	0
bin	2	0
bin	3	1
bin	4	0
scalar scenarioPRJP1.node[79].wlan.radio 	transmissionState:count 	46176
attr interpolationmode  sample-hold
attr source  transmissionStateChanged
attr title  "Radio transmission state, count"
scalar scenarioPRJP1.node[79].wlan.radio 	receptionState:count 	212608
attr interpolationmode  sample-hold
attr source  receptionStateChanged
attr title  "Radio reception state, count"
scalar scenarioPRJP1.node[79].wlan.radio 	radioMode:count 	23090
attr interpolationmode  sample-hold
attr source  radioModeChanged
attr title  "Radio mode, count"
statistic scenarioPRJP1.node[79].wlan.radio 	symbolErrorRate:histogram
field count 0
field mean nan
field stddev nan
field sum 0
field sqrsum 0
field min nan
field max nan
attr source  symbolErrorRate
attr title  "Symbol error rate, histogram"
bin	-INF	0
bin	-0.5	0
bin	-0.46666666666667	0
bin	-0.43333333333333	0
bin	-0.4	0
bin	-0.36666666666667	0
bin	-0.33333333333333	0
bin	-0.3	0
bin	-0.26666666666667	0
bin	-0.23333333333333	0
bin	-0.2	0
bin	-0.16666666666667	0
bin	-0.13333333333333	0
bin	-0.1	0
bin	-0.066666666666667	0
bin	-0.033333333333333	0
bin	0	0
bin	0.033333333333333	0
bin	0.066666666666667	0
bin	0.1	0
bin	0.13333333333333	0
bin	0.16666666666667	0
bin	0.2	0
bin	0.23333333333333	0
bin	0.26666666666667	0
bin	0.3	0
bin	0.33333333333333	0
bin	0.36666666666667	0
bin	0.4	0
bin	0.43333333333333	0
bin	0.46666666666667	0
bin	0.5	0
statistic scenarioPRJP1.node[79].wlan.radio 	bitErrorRate:histogram
field count 0
field mean nan
field stddev nan
field sum 0
field sqrsum 0
field min nan
field max nan
attr source  bitErrorRate
attr title  "Bit error rate, histogram"
bin	-INF	0
bin	-0.5	0
bin	-0.46666666666667	0
bin	-0.43333333333333	0
bin	-0.4	0
bin	-0.36666666666667	0
bin	-0.33333333333333	0
bin	-0.3	0
bin	-0.26666666666667	0
bin	-0.23333333333333	0
bin	-0.2	0
bin	-0.16666666666667	0
bin	-0.13333333333333	0
bin	-0.1	0
bin	-0.066666666666667	0
bin	-0.033333333333333	0
bin	0	0
bin	0.033333333333333	0
bin	0.066666666666667	0
bin	0.1	0
bin	0.13333333333333	0
bin	0.16666666666667	0
bin	0.2	0
bin	0.23333333333333	0
bin	0.26666666666667	0
bin	0.3	0
bin	0.33333333333333	0
bin	0.36666666666667	0
bin	0.4	0
bin	0.43333333333333	0
bin	0.46666666666667	0
bin	0.5	0
statistic scenarioPRJP1.node[79].wlan.radio 	packetErrorRate:histogram
field count 82669
field mean 0.41066679947346
field stddev 0.48306403353533
field sum 33949.413645671
field sqrsum 33232.545981304
field min 0
field max 1
attr source  packetErrorRate
attr title  "Packet error rate, histogram"
bin	-INF	0
bin	-0.5	0
bin	-0.43333333333333	0
bin	-0.36666666666667	0
bin	-0.3	0
bin	-0.23333333333333	0
bin	-0.16666666666667	0
bin	-0.1	0
bin	-0.033333333333333	45845
bin	0.033333333333333	1132
bin	0.1	542
bin	0.16666666666667	405
bin	0.23333333333333	315
bin	0.3	249
bin	0.36666666666667	224
bin	0.43333333333333	226
bin	0.5	188
bin	0.56666666666667	183
bin	0.63333333333333	210
bin	0.7	201
bin	0.76666666666667	222
bin	0.83333333333333	250
bin	0.9	375
bin	0.96666666666667	32102
bin	1.0333333333333	0
bin	1.1	0
bin	1.1666666666667	0
bin	1.2333333333333	0
bin	1.3	0
bin	1.3666666666667	0
bin	1.4333333333333	0
bin	1.5	0
statistic scenarioPRJP1.node[79].wlan.radio 	minSNIR:histogram
field count 82669
field mean 539.20495861127
field stddev 9223.4630029511
field sum 44575534.723435
field sqrsum 7056789746438
field min 0.00012627532011463
field max 1022545.1005
attr source  minSNIR
attr title  "Min SNIR, histogram"
bin	-INF	0
bin	-11493.666108726	0
bin	-9961.1535468066	0
bin	-8428.640984887	0
bin	-6896.1284229674	0
bin	-5363.6158610478	0
bin	-3831.1032991282	0
bin	-2298.5907372087	0
bin	-766.07817528909	79070
bin	766.43438663049	1913
bin	2298.9469485501	533
bin	3831.4595104696	263
bin	5363.9720723892	150
bin	6896.4846343088	96
bin	8428.9971962284	75
bin	9961.509758148	55
bin	11494.022320068	53
bin	13026.534881987	33
bin	14559.047443907	28
bin	16091.560005826	18
bin	17624.072567746	21
bin	19156.585129665	23
bin	20689.097691585	17
bin	22221.610253505	12
bin	23754.122815424	14
bin	25286.635377344	16
bin	26819.147939263	16
bin	28351.660501183	9
bin	29884.173063102	5
bin	31416.685625022	4
bin	32949.198186942	7
bin	34481.710748861	238
scalar scenarioPRJP1.node[79].lo0.lo 	droppedPkBitError:count 	0
attr interpolationmode  none
attr source  dropPkBitError
attr title  "packets dropped/bit error, count"
scalar scenarioPRJP1.node[79].lo0.lo 	droppedPkBitError:sum(packetBytes) 	0
attr interpolationmode  none
attr source  dropPkBitError
attr title  "packets dropped/bit error, sum(packetBytes)"
scalar scenarioPRJP1.node[79].lo0.lo 	rcvdPkFromHL:count 	0
attr interpolationmode  none
attr source  packetReceivedFromUpper
attr title  "packets received from higher layer, count"
scalar scenarioPRJP1.node[79].lo0.lo 	rcvdPkFromHL:sum(packetBytes) 	0
attr interpolationmode  none
attr source  packetReceivedFromUpper
attr title  "packets received from higher layer, sum(packetBytes)"
scalar scenarioPRJP1.node[79].lo0.lo 	passedUpPk:count 	0
attr interpolationmode  none
attr source  packetSentToUpper
attr title  "packets passed to higher layer, count"
scalar scenarioPRJP1.node[79].lo0.lo 	passedUpPk:sum(packetBytes) 	0
attr interpolationmode  none
attr source  packetSentToUpper
attr title  "packets passed to higher layer, sum(packetBytes)"
scalar scenarioPRJP1.node[99].app 	"Total sent" 	2603
scalar scenarioPRJP1.node[99].app 	"Total received" 	150
scalar scenarioPRJP1.node[99].app 	"Total deleted" 	0
scalar scenarioPRJP1.node[99].app 	dropPk:count 	0
attr interpolationmode  none
attr source  dropPk
attr title  "packets dropped, count"
scalar scenarioPRJP1.node[99].app 	dropPk:sum(packetBytes) 	0
attr interpolationmode  none
attr source  dropPk
attr title  "packets dropped, sum(packetBytes)"
scalar scenarioPRJP1.node[99].app 	outOfOrderPk:count 	0
attr interpolationmode  none
attr source  outOfOrderPk
attr title  "packets received out of order, count"
scalar scenarioPRJP1.node[99].app 	outOfOrderPk:sum(packetBytes) 	0
attr interpolationmode  none
attr source  outOfOrderPk
attr title  "packets received out of order, sum(packetBytes)"
scalar scenarioPRJP1.node[99].app 	rcvdPk:count 	150
attr interpolationmode  none
attr source  rcvdPk
attr title  "packets received, count"
scalar scenarioPRJP1.node[99].app 	rcvdPk:sum(packetBytes) 	76800
attr interpolationmode  none
attr source  rcvdPk
attr title  "packets received, sum(packetBytes)"
statistic scenarioPRJP1.node[99].app 	endToEndDelay:histogram
field count 150
field mean 0.21861195479293
field stddev 0.55275867401396
field sum 32.79179321894
field sqrsum 52.694458619711
field min 0.000945080039
field max 2.79302987205
attr interpolationmode  none
attr source  messageAge(rcvdPk)
attr title  "delay, histogram"
attr unit  s
bin	-INF	0
bin	-1.271068624547	0
bin	-1.1014667972689	0
bin	-0.93186496999073	0
bin	-0.7622631427126	0
bin	-0.59266131543447	0
bin	-0.42305948815633	0
bin	-0.2534576608782	0
bin	-0.083855833600067	124
bin	0.085745993678067	5
bin	0.2553478209562	3
bin	0.42494964823433	0
bin	0.59455147551247	1
bin	0.7641533027906	1
bin	0.93375513006873	4
bin	1.1033569573469	0
bin	1.272958784625	3
bin	1.4425606119031	2
bin	1.6121624391813	1
bin	1.7817642664594	1
bin	1.9513660937375	1
bin	2.1209679210157	0
bin	2.2905697482938	1
bin	2.4601715755719	2
bin	2.6297734028501	1
bin	2.7993752301282	0
bin	2.9689770574063	0
bin	3.1385788846845	0
bin	3.3081807119626	0
bin	3.4777825392407	0
bin	3.6473843665189	0
bin	3.816986193797	0
scalar scenarioPRJP1.node[99].app 	sentPk:count 	2603
attr interpolationmode  none
attr source  sentPk
attr title  "packets sent, count"
scalar scenarioPRJP1.node[99].app 	sentPk:sum(packetBytes) 	1332736
attr interpolationmode  none
attr source  sentPk
attr title  "packets sent, sum(packetBytes)"
scalar scenarioPRJP1.node[99].udp 	droppedPkBadChecksum:count 	0
attr interpolationmode  none
attr title  "packets dropped (checksum error), count"
scalar scenarioPRJP1.node[99].udp 	droppedPkWrongPort:count 	0
attr interpolationmode  none
attr title  "packets dropped (wrong port), count"
scalar scenarioPRJP1.node[99].udp 	passedUpPk:count 	150
attr interpolationmode  none
attr title  "packets passed up, count"
scalar scenarioPRJP1.node[99].udp 	rcvdPk:count 	150
attr interpolationmode  none
attr source  rcvdPk
attr title  "packets received, count"
scalar scenarioPRJP1.node[99].udp 	rcvdPk:sum(packetBytes) 	78000
attr interpolationmode  none
attr source  rcvdPk
attr title  "packets received, sum(packetBytes)"
scalar scenarioPRJP1.node[99].udp 	sentPk:count 	2603
attr interpolationmode  none
attr source  sentPk
attr title  "packets sent, count"
scalar scenarioPRJP1.node[99].udp 	sentPk:sum(packetBytes) 	1353560
attr interpolationmode  none
attr source  sentPk
attr title  "packets sent, sum(packetBytes)"
scalar scenarioPRJP1.node[99].networkLayer.arp 	failedARPResolution:count 	213
attr title  "ARP failed resolutions, count"
scalar scenarioPRJP1.node[99].networkLayer.arp 	completedARPResolution:count 	2315
attr title  "ARP completed resolutions, count"
scalar scenarioPRJP1.node[99].networkLayer.arp 	initiatedARPResolution:count 	307
attr title  "ARP initiated resolutions, count"
scalar scenarioPRJP1.node[99].networkLayer.arp 	sentReply:count 	56
attr title  "ARP replies sent, count"
scalar scenarioPRJP1.node[99].networkLayer.arp 	sentReq:count 	819
attr title  "ARP request sent, count"
scalar scenarioPRJP1.node[99].mobility 	startTime 	9.9
scalar scenarioPRJP1.node[99].mobility 	totalTime 	940.1
scalar scenarioPRJP1.node[99].mobility 	stopTime 	950
scalar scenarioPRJP1.node[99].mobility 	minSpeed 	2.4755420506867e-13
scalar scenarioPRJP1.node[99].mobility 	maxSpeed 	21.671982695803
scalar scenarioPRJP1.node[99].mobility 	totalDistance 	11156.533720381
scalar scenarioPRJP1.node[99].mobility 	totalCO2Emission 	3045.2954600916
scalar scenarioPRJP1.node[99].wlan.mgmt 	dataQueueLen:max 	2
attr interpolationmode  sample-hold
attr title  "data queue length, max"
scalar scenarioPRJP1.node[99].wlan.mgmt 	dataQueueLen:timeavg 	0
attr interpolationmode  sample-hold
attr title  "data queue length, timeavg"
scalar scenarioPRJP1.node[99].wlan.mgmt 	dropPkByQueue:count 	0
attr interpolationmode  none
attr source  dropPkByQueue
attr title  "packets dropped by queue, count"
scalar scenarioPRJP1.node[99].wlan.mgmt 	dropPkByQueue:sum(packetBytes) 	0
attr interpolationmode  none
attr source  dropPkByQueue
attr title  "packets dropped by queue, sum(packetBytes)"
scalar scenarioPRJP1.node[99].wlan.mac 	"number of received packets" 	931
scalar scenarioPRJP1.node[99].wlan.mac 	"number of collisions" 	43049
scalar scenarioPRJP1.node[99].wlan.mac 	"number of internal collisions" 	1
scalar scenarioPRJP1.node[99].wlan.mac 	"number of retry for AC 0" 	5937
scalar scenarioPRJP1.node[99].wlan.mac 	"number of retry for AC 1" 	62
scalar scenarioPRJP1.node[99].wlan.mac 	"number of retry for AC 2" 	0
scalar scenarioPRJP1.node[99].wlan.mac 	"number of retry for AC 3" 	0
scalar scenarioPRJP1.node[99].wlan.mac 	"sent and received bits" 	40319040
scalar scenarioPRJP1.node[99].wlan.mac 	"sent packet within AC 0" 	502
scalar scenarioPRJP1.node[99].wlan.mac 	"sent packet within AC 1" 	21
scalar scenarioPRJP1.node[99].wlan.mac 	"sent packet within AC 2" 	0
scalar scenarioPRJP1.node[99].wlan.mac 	"sent packet within AC 3" 	0
scalar scenarioPRJP1.node[99].wlan.mac 	"sent in TXOP " 	0
scalar scenarioPRJP1.node[99].wlan.mac 	"sentWithoutRetry AC 0" 	311
scalar scenarioPRJP1.node[99].wlan.mac 	"sentWithoutRetry AC 1" 	14
scalar scenarioPRJP1.node[99].wlan.mac 	"sentWithoutRetry AC 2" 	0
scalar scenarioPRJP1.node[99].wlan.mac 	"sentWithoutRetry AC 3" 	0
scalar scenarioPRJP1.node[99].wlan.mac 	"numGivenUp AC 0" 	901
scalar scenarioPRJP1.node[99].wlan.mac 	"numGivenUp AC 1" 	8
scalar scenarioPRJP1.node[99].wlan.mac 	"numGivenUp AC 2" 	0
scalar scenarioPRJP1.node[99].wlan.mac 	"numGivenUp AC 3" 	0
scalar scenarioPRJP1.node[99].wlan.mac 	"numDropped AC 0" 	0
scalar scenarioPRJP1.node[99].wlan.mac 	"numDropped AC 1" 	0
scalar scenarioPRJP1.node[99].wlan.mac 	"numDropped AC 2" 	0
scalar scenarioPRJP1.node[99].wlan.mac 	"numDropped AC 3" 	0
scalar scenarioPRJP1.node[99].wlan.mac 	rcvdPkFromLL:count 	102062
attr interpolationmode  none
attr source  packetReceivedFromLower
attr title  "packets received from lower layer, count"
scalar scenarioPRJP1.node[99].wlan.mac 	rcvdPkFromLL:sum(packetBytes) 	66598770
attr interpolationmode  none
attr source  packetReceivedFromLower
attr title  "packets received from lower layer, sum(packetBytes)"
scalar scenarioPRJP1.node[99].wlan.mac 	sentDownPk:count 	13715
attr interpolationmode  none
attr source  packetSentToLower
attr title  "packets sent to lower layer, count"
scalar scenarioPRJP1.node[99].wlan.mac 	sentDownPk:sum(packetBytes) 	8864346
attr interpolationmode  none
attr source  packetSentToLower
attr title  "packets sent to lower layer, sum(packetBytes)"
scalar scenarioPRJP1.node[99].wlan.mac 	rcvdPkFromHL:count 	6786
attr interpolationmode  none
attr source  packetReceivedFromUpper
attr title  "packets received from higher layer, count"
scalar scenarioPRJP1.node[99].wlan.mac 	rcvdPkFromHL:sum(packetBytes) 	5541672
attr interpolationmode  none
attr source  packetReceivedFromUpper
attr title  "packets received from higher layer, sum(packetBytes)"
scalar scenarioPRJP1.node[99].wlan.mac 	passedUpPk:count 	29327
attr interpolationmode  none
attr source  packetSentToUpper
attr title  "packets passed to higher layer, count"
scalar scenarioPRJP1.node[99].wlan.mac 	passedUpPk:sum(packetBytes) 	27495660
attr interpolationmode  none
attr source  packetSentToUpper
attr title  "packets passed to higher layer, sum(packetBytes)"
statistic scenarioPRJP1.node[99].wlan.radio 	radioChannel:histogram
field count 1
field mean 3
field stddev nan
field sum 3
field sqrsum 9
field min 3
field max 3
attr interpolationmode  sample-hold
attr source  radioChannelChanged
attr title  "Radio channel, histogram"
bin	-INF	0
bin	2	0
bin	3	1
bin	4	0
scalar scenarioPRJP1.node[99].wlan.radio 	transmissionState:count 	54860
attr interpolationmode  sample-hold
attr source  transmissionStateChanged
attr title  "Radio transmission state, count"
scalar scenarioPRJP1.node[99].wlan.radio 	receptionState:count 	262076
attr interpolationmode  sample-hold
attr source  receptionStateChanged
attr title  "Radio reception state, count"
scalar scenarioPRJP1.node[99].wlan.radio 	radioMode:count 	27432
attr interpolationmode  sample-hold
attr source  radioModeChanged
attr title  "Radio mode, count"
statistic scenarioPRJP1.node[99].wlan.radio 	symbolErrorRate:histogram
field count 0
field mean nan
field stddev nan
field sum 0
field sqrsum 0
field min nan
field max nan
attr source  symbolErrorRate
attr title  "Symbol error rate, histogram"
bin	-INF	0
bin	-0.5	0
bin	-0.46666666666667	0
bin	-0.43333333333333	0
bin	-0.4	0
bin	-0.36666666666667	0
bin	-0.33333333333333	0
bin	-0.3	0
bin	-0.26666666666667	0
bin	-0.23333333333333	0
bin	-0.2	0
bin	-0.16666666666667	0
bin	-0.13333333333333	0
bin	-0.1	0
bin	-0.066666666666667	0
bin	-0.033333333333333	0
bin	0	0
bin	0.033333333333333	0
bin	0.066666666666667	0
bin	0.1	0
bin	0.13333333333333	0
bin	0.16666666666667	0
bin	0.2	0
bin	0.23333333333333	0
bin	0.26666666666667	0
bin	0.3	0
bin	0.33333333333333	0
bin	0.36666666666667	0
bin	0.4	0
bin	0.43333333333333	0
bin	0.46666666666667	0
bin	0.5	0
statistic scenarioPRJP1.node[99].wlan.radio 	bitErrorRate:histogram
field count 0
field mean nan
field stddev nan
field sum 0
field sqrsum 0
field min nan
field max nan
attr source  bitErrorRate
attr title  "Bit error rate, histogram"
bin	-INF	0
bin	-0.5	0
bin	-0.46666666666667	0
bin	-0.43333333333333	0
bin	-0.4	0
bin	-0.36666666666667	0
bin	-0.33333333333333	0
bin	-0.3	0
bin	-0.26666666666667	0
bin	-0.23333333333333	0
bin	-0.2	0
bin	-0.16666666666667	0
bin	-0.13333333333333	0
bin	-0.1	0
bin	-0.066666666666667	0
bin	-0.033333333333333	0
bin	0	0
bin	0.033333333333333	0
bin	0.066666666666667	0
bin	0.1	0
bin	0.13333333333333	0
bin	0.16666666666667	0
bin	0.2	0
bin	0.23333333333333	0
bin	0.26666666666667	0
bin	0.3	0
bin	0.33333333333333	0
bin	0.36666666666667	0
bin	0.4	0
bin	0.43333333333333	0
bin	0.46666666666667	0
bin	0.5	0
statistic scenarioPRJP1.node[99].wlan.radio 	packetErrorRate:histogram
field count 102062
field mean 0.40338208193109
field stddev 0.48211604792575
field sum 41169.982046051
field sqrsum 40329.871793795
field min 0
field max 1
attr source  packetErrorRate
attr title  "Packet error rate, histogram"
bin	-INF	0
bin	-0.5	0
bin	-0.43333333333333	0
bin	-0.36666666666667	0
bin	-0.3	0
bin	-0.23333333333333	0
bin	-0.16666666666667	0
bin	-0.1	0
bin	-0.033333333333333	57502
bin	0.033333333333333	1375
bin	0.1	649
bin	0.16666666666667	435
bin	0.23333333333333	364
bin	0.3	314
bin	0.36666666666667	265
bin	0.43333333333333	226
bin	0.5	226
bin	0.56666666666667	241
bin	0.63333333333333	231
bin	0.7	232
bin	0.76666666666667	251
bin	0.83333333333333	298
bin	0.9	500
bin	0.96666666666667	38953
bin	1.0333333333333	0
bin	1.1	0
bin	1.1666666666667	0
bin	1.2333333333333	0
bin	1.3	0
bin	1.3666666666667	0
bin	1.4333333333333	0
bin	1.5	0
statistic scenarioPRJP1.node[99].wlan.radio 	minSNIR:histogram
field count 102062
field mean 589.90235779939
field stddev 8908.8680083683
field sum 60206614.441721
field sqrsum 8135886244928.8
field min 0.00012221598781813
field max 1113385.6431792
attr source  minSNIR
attr title  "Min SNIR, histogram"
bin	-INF	0
bin	-5497.3468667671	0
bin	-4764.2102003523	0
bin	-4031.0735339375	0
bin	-3297.9368675228	0
bin	-2564.800201108	0
bin	-1831.6635346932	0
bin	-1098.5268682784	0
bin	-365.39020186367	94766
bin	367.74646455111	3662
bin	1100.8831309659	971
bin	1834.0197973806	468
bin	2567.1564637954	319
bin	3300.2931302102	228
bin	4033.429796625	171
bin	4766.5664630397	134
bin	5499.7031294545	106
bin	6232.8397958693	101
bin	6965.9764622841	70
bin	7699.1131286988	52
bin	8432.2497951136	73
bin	9165.3864615284	45
bin	9898.5231279431	52
bin	10631.659794358	45
bin	11364.796460773	41
bin	12097.933127187	22
bin	12831.069793602	31
bin	13564.206460017	30
bin	14297.343126432	24
bin	15030.479792847	30
bin	15763.616459261	20
bin	16496.753125676	601
scalar scenarioPRJP1.node[99].lo0.lo 	droppedPkBitError:count 	0
attr interpolationmode  none
attr source  dropPkBitError
attr title  "packets dropped/bit error, count"
scalar scenarioPRJP1.node[99].lo0.lo 	droppedPkBitError:sum(packetBytes) 	0
attr interpolationmode  none
attr source  dropPkBitError
attr title  "packets dropped/bit error, sum(packetBytes)"
scalar scenarioPRJP1.node[99].lo0.lo 	rcvdPkFromHL:count 	3
attr interpolationmode  none
attr source  packetReceivedFromUpper
attr title  "packets received from higher layer, count"
scalar scenarioPRJP1.node[99].lo0.lo 	rcvdPkFromHL:sum(packetBytes) 	168
attr interpolationmode  none
attr source  packetReceivedFromUpper
attr title  "packets received from higher layer, sum(packetBytes)"
scalar scenarioPRJP1.node[99].lo0.lo 	passedUpPk:count 	3
attr interpolationmode  none
attr source  packetSentToUpper
attr title  "packets passed to higher layer, count"
scalar scenarioPRJP1.node[99].lo0.lo 	passedUpPk:sum(packetBytes) 	168
attr interpolationmode  none
attr source  packetSentToUpper
attr title  "packets passed to higher layer, sum(packetBytes)"
