version 2
run DSRUU-LNS-10n-17-20150817-20:02:23-10295
attr configname DSRUU-LNS-10n
attr datetime 20150817-20:02:23
attr experiment DSRUU-LNS-10n
attr inifile omnetpp.ini
attr iterationvars ""
attr iterationvars2 $repetition=17
attr measurement ""
attr network Prj_Part1_propag.scenarioPRJP1
attr processid 10295
attr repetition 17
attr replication #17
attr resultdir results
attr runnumber 17
attr seedset 17

scalar scenarioPRJP1.radioMedium.propagation 	"Arrival computation count" 	2827593
scalar scenarioPRJP1.radioMedium 	"transmission count" 	314177
scalar scenarioPRJP1.radioMedium 	"radio frame send count" 	2827593
scalar scenarioPRJP1.radioMedium 	"reception computation count" 	2800622
scalar scenarioPRJP1.radioMedium 	"interference computation count" 	8272482
scalar scenarioPRJP1.radioMedium 	"reception decision computation count" 	287294
scalar scenarioPRJP1.radioMedium 	"listening decision computation count" 	5277205
scalar scenarioPRJP1.radioMedium 	"reception cache hit" 	74.925401731196
attr unit  %
scalar scenarioPRJP1.radioMedium 	"interference cache hit" 	50
attr unit  %
scalar scenarioPRJP1.radioMedium 	"noise cache hit" 	0
attr unit  %
scalar scenarioPRJP1.radioMedium 	"snir cache hit" 	0
attr unit  %
scalar scenarioPRJP1.radioMedium 	"reception decision cache hit" 	0
attr unit  %
scalar scenarioPRJP1.node[0].app 	"Total sent" 	2607
scalar scenarioPRJP1.node[0].app 	"Total received" 	295
scalar scenarioPRJP1.node[0].app 	"Total deleted" 	11
scalar scenarioPRJP1.node[0].app 	dropPk:count 	11
attr interpolationmode  none
attr source  dropPk
attr title  "packets dropped, count"
scalar scenarioPRJP1.node[0].app 	dropPk:sum(packetBytes) 	5632
attr interpolationmode  none
attr source  dropPk
attr title  "packets dropped, sum(packetBytes)"
scalar scenarioPRJP1.node[0].app 	outOfOrderPk:count 	26
attr interpolationmode  none
attr source  outOfOrderPk
attr title  "packets received out of order, count"
scalar scenarioPRJP1.node[0].app 	outOfOrderPk:sum(packetBytes) 	13312
attr interpolationmode  none
attr source  outOfOrderPk
attr title  "packets received out of order, sum(packetBytes)"
scalar scenarioPRJP1.node[0].app 	rcvdPk:count 	295
attr interpolationmode  none
attr source  rcvdPk
attr title  "packets received, count"
scalar scenarioPRJP1.node[0].app 	rcvdPk:sum(packetBytes) 	151040
attr interpolationmode  none
attr source  rcvdPk
attr title  "packets received, sum(packetBytes)"
statistic scenarioPRJP1.node[0].app 	endToEndDelay:histogram
field count 295
field mean 0.81966077425254
field stddev 2.3730707883321
field sum 241.7999284045
field sqrsum 1853.8446166621
field min 0.000956680003
field max 17.437630633118
attr interpolationmode  none
attr source  messageAge(rcvdPk)
attr title  "delay, histogram"
attr unit  s
bin	-INF	0
bin	-5.272851292075	0
bin	-4.5696768957979	0
bin	-3.8665024995209	0
bin	-3.1633281032438	0
bin	-2.4601537069667	0
bin	-1.7569793106897	0
bin	-1.0538049144126	0
bin	-0.35063051813553	226
bin	0.35254387814153	17
bin	1.0557182744186	17
bin	1.7588926706957	5
bin	2.4620670669727	7
bin	3.1652414632498	7
bin	3.8684158595269	2
bin	4.5715902558039	3
bin	5.274764652081	0
bin	5.9779390483581	0
bin	6.6811134446351	1
bin	7.3842878409122	2
bin	8.0874622371893	1
bin	8.7906366334663	0
bin	9.4938110297434	0
bin	10.19698542602	2
bin	10.900159822298	0
bin	11.603334218575	1
bin	12.306508614852	0
bin	13.009683011129	2
bin	13.712857407406	0
bin	14.416031803683	0
bin	15.11920619996	0
bin	15.822380596237	2
scalar scenarioPRJP1.node[0].app 	sentPk:count 	2607
attr interpolationmode  none
attr source  sentPk
attr title  "packets sent, count"
scalar scenarioPRJP1.node[0].app 	sentPk:sum(packetBytes) 	1334784
attr interpolationmode  none
attr source  sentPk
attr title  "packets sent, sum(packetBytes)"
scalar scenarioPRJP1.node[0].udp 	droppedPkBadChecksum:count 	0
attr interpolationmode  none
attr title  "packets dropped (checksum error), count"
scalar scenarioPRJP1.node[0].udp 	droppedPkWrongPort:count 	0
attr interpolationmode  none
attr title  "packets dropped (wrong port), count"
scalar scenarioPRJP1.node[0].udp 	passedUpPk:count 	332
attr interpolationmode  none
attr title  "packets passed up, count"
scalar scenarioPRJP1.node[0].udp 	rcvdPk:count 	332
attr interpolationmode  none
attr source  rcvdPk
attr title  "packets received, count"
scalar scenarioPRJP1.node[0].udp 	rcvdPk:sum(packetBytes) 	172640
attr interpolationmode  none
attr source  rcvdPk
attr title  "packets received, sum(packetBytes)"
scalar scenarioPRJP1.node[0].udp 	sentPk:count 	2607
attr interpolationmode  none
attr source  sentPk
attr title  "packets sent, count"
scalar scenarioPRJP1.node[0].udp 	sentPk:sum(packetBytes) 	1355640
attr interpolationmode  none
attr source  sentPk
attr title  "packets sent, sum(packetBytes)"
scalar scenarioPRJP1.node[0].networkLayer.arp 	failedARPResolution:count 	97
attr title  "ARP failed resolutions, count"
scalar scenarioPRJP1.node[0].networkLayer.arp 	completedARPResolution:count 	99
attr title  "ARP completed resolutions, count"
scalar scenarioPRJP1.node[0].networkLayer.arp 	initiatedARPResolution:count 	113
attr title  "ARP initiated resolutions, count"
scalar scenarioPRJP1.node[0].networkLayer.arp 	sentReply:count 	15
attr title  "ARP replies sent, count"
scalar scenarioPRJP1.node[0].networkLayer.arp 	sentReq:count 	321
attr title  "ARP request sent, count"
scalar scenarioPRJP1.node[0].mobility 	startTime 	0.1
scalar scenarioPRJP1.node[0].mobility 	totalTime 	949.9
scalar scenarioPRJP1.node[0].mobility 	stopTime 	950
scalar scenarioPRJP1.node[0].mobility 	minSpeed 	2.4755636710504e-13
scalar scenarioPRJP1.node[0].mobility 	maxSpeed 	18.687183401564
scalar scenarioPRJP1.node[0].mobility 	totalDistance 	8934.6560553356
scalar scenarioPRJP1.node[0].mobility 	totalCO2Emission 	2459.4705465476
scalar scenarioPRJP1.node[0].wlan.mgmt 	dataQueueLen:max 	14
attr interpolationmode  sample-hold
attr title  "data queue length, max"
scalar scenarioPRJP1.node[0].wlan.mgmt 	dataQueueLen:timeavg 	0
attr interpolationmode  sample-hold
attr title  "data queue length, timeavg"
scalar scenarioPRJP1.node[0].wlan.mgmt 	dropPkByQueue:count 	0
attr interpolationmode  none
attr source  dropPkByQueue
attr title  "packets dropped by queue, count"
scalar scenarioPRJP1.node[0].wlan.mgmt 	dropPkByQueue:sum(packetBytes) 	0
attr interpolationmode  none
attr source  dropPkByQueue
attr title  "packets dropped by queue, sum(packetBytes)"
scalar scenarioPRJP1.node[0].wlan.mac 	"number of received packets" 	2929
scalar scenarioPRJP1.node[0].wlan.mac 	"number of collisions" 	1806
scalar scenarioPRJP1.node[0].wlan.mac 	"number of internal collisions" 	0
scalar scenarioPRJP1.node[0].wlan.mac 	"number of retry for AC 0" 	17317
scalar scenarioPRJP1.node[0].wlan.mac 	"number of retry for AC 1" 	0
scalar scenarioPRJP1.node[0].wlan.mac 	"number of retry for AC 2" 	0
scalar scenarioPRJP1.node[0].wlan.mac 	"number of retry for AC 3" 	0
scalar scenarioPRJP1.node[0].wlan.mac 	"sent and received bits" 	1577024
scalar scenarioPRJP1.node[0].wlan.mac 	"sent packet within AC 0" 	267
scalar scenarioPRJP1.node[0].wlan.mac 	"sent packet within AC 1" 	0
scalar scenarioPRJP1.node[0].wlan.mac 	"sent packet within AC 2" 	0
scalar scenarioPRJP1.node[0].wlan.mac 	"sent packet within AC 3" 	0
scalar scenarioPRJP1.node[0].wlan.mac 	"sent in TXOP " 	0
scalar scenarioPRJP1.node[0].wlan.mac 	"sentWithoutRetry AC 0" 	234
scalar scenarioPRJP1.node[0].wlan.mac 	"sentWithoutRetry AC 1" 	0
scalar scenarioPRJP1.node[0].wlan.mac 	"sentWithoutRetry AC 2" 	0
scalar scenarioPRJP1.node[0].wlan.mac 	"sentWithoutRetry AC 3" 	0
scalar scenarioPRJP1.node[0].wlan.mac 	"numGivenUp AC 0" 	2878
scalar scenarioPRJP1.node[0].wlan.mac 	"numGivenUp AC 1" 	0
scalar scenarioPRJP1.node[0].wlan.mac 	"numGivenUp AC 2" 	0
scalar scenarioPRJP1.node[0].wlan.mac 	"numGivenUp AC 3" 	0
scalar scenarioPRJP1.node[0].wlan.mac 	"numDropped AC 0" 	0
scalar scenarioPRJP1.node[0].wlan.mac 	"numDropped AC 1" 	0
scalar scenarioPRJP1.node[0].wlan.mac 	"numDropped AC 2" 	0
scalar scenarioPRJP1.node[0].wlan.mac 	"numDropped AC 3" 	0
scalar scenarioPRJP1.node[0].wlan.mac 	rcvdPkFromLL:count 	20696
attr interpolationmode  none
attr source  packetReceivedFromLower
attr title  "packets received from lower layer, count"
scalar scenarioPRJP1.node[0].wlan.mac 	rcvdPkFromLL:sum(packetBytes) 	5696638
attr interpolationmode  none
attr source  packetReceivedFromLower
attr title  "packets received from lower layer, sum(packetBytes)"
scalar scenarioPRJP1.node[0].wlan.mac 	sentDownPk:count 	25085
attr interpolationmode  none
attr source  packetSentToLower
attr title  "packets sent to lower layer, count"
scalar scenarioPRJP1.node[0].wlan.mac 	sentDownPk:sum(packetBytes) 	7657954
attr interpolationmode  none
attr source  packetSentToLower
attr title  "packets sent to lower layer, sum(packetBytes)"
scalar scenarioPRJP1.node[0].wlan.mac 	rcvdPkFromHL:count 	4839
attr interpolationmode  none
attr source  packetReceivedFromUpper
attr title  "packets received from higher layer, count"
scalar scenarioPRJP1.node[0].wlan.mac 	rcvdPkFromHL:sum(packetBytes) 	1254284
attr interpolationmode  none
attr source  packetReceivedFromUpper
attr title  "packets received from higher layer, sum(packetBytes)"
scalar scenarioPRJP1.node[0].wlan.mac 	passedUpPk:count 	2498
attr interpolationmode  none
attr source  packetSentToUpper
attr title  "packets passed to higher layer, count"
scalar scenarioPRJP1.node[0].wlan.mac 	passedUpPk:sum(packetBytes) 	555508
attr interpolationmode  none
attr source  packetSentToUpper
attr title  "packets passed to higher layer, sum(packetBytes)"
statistic scenarioPRJP1.node[0].wlan.radio 	radioChannel:histogram
field count 1
field mean 3
field stddev -nan
field sum 3
field sqrsum 9
field min 3
field max 3
attr interpolationmode  sample-hold
attr source  radioChannelChanged
attr title  "Radio channel, histogram"
bin	-INF	0
bin	2	0
bin	3	1
bin	4	0
scalar scenarioPRJP1.node[0].wlan.radio 	transmissionState:count 	100340
attr interpolationmode  sample-hold
attr source  transmissionStateChanged
attr title  "Radio transmission state, count"
scalar scenarioPRJP1.node[0].wlan.radio 	receptionState:count 	91866
attr interpolationmode  sample-hold
attr source  receptionStateChanged
attr title  "Radio reception state, count"
scalar scenarioPRJP1.node[0].wlan.radio 	radioMode:count 	50172
attr interpolationmode  sample-hold
attr source  radioModeChanged
attr title  "Radio mode, count"
statistic scenarioPRJP1.node[0].wlan.radio 	symbolErrorRate:histogram
field count 0
field mean -nan
field stddev -nan
field sum 0
field sqrsum 0
field min -nan
field max -nan
attr source  symbolErrorRate
attr title  "Symbol error rate, histogram"
bin	-INF	0
bin	-0.5	0
bin	-0.46666666666667	0
bin	-0.43333333333333	0
bin	-0.4	0
bin	-0.36666666666667	0
bin	-0.33333333333333	0
bin	-0.3	0
bin	-0.26666666666667	0
bin	-0.23333333333333	0
bin	-0.2	0
bin	-0.16666666666667	0
bin	-0.13333333333333	0
bin	-0.1	0
bin	-0.066666666666667	0
bin	-0.033333333333333	0
bin	0	0
bin	0.033333333333333	0
bin	0.066666666666667	0
bin	0.1	0
bin	0.13333333333333	0
bin	0.16666666666667	0
bin	0.2	0
bin	0.23333333333333	0
bin	0.26666666666667	0
bin	0.3	0
bin	0.33333333333333	0
bin	0.36666666666667	0
bin	0.4	0
bin	0.43333333333333	0
bin	0.46666666666667	0
bin	0.5	0
statistic scenarioPRJP1.node[0].wlan.radio 	bitErrorRate:histogram
field count 0
field mean -nan
field stddev -nan
field sum 0
field sqrsum 0
field min -nan
field max -nan
attr source  bitErrorRate
attr title  "Bit error rate, histogram"
bin	-INF	0
bin	-0.5	0
bin	-0.46666666666667	0
bin	-0.43333333333333	0
bin	-0.4	0
bin	-0.36666666666667	0
bin	-0.33333333333333	0
bin	-0.3	0
bin	-0.26666666666667	0
bin	-0.23333333333333	0
bin	-0.2	0
bin	-0.16666666666667	0
bin	-0.13333333333333	0
bin	-0.1	0
bin	-0.066666666666667	0
bin	-0.033333333333333	0
bin	0	0
bin	0.033333333333333	0
bin	0.066666666666667	0
bin	0.1	0
bin	0.13333333333333	0
bin	0.16666666666667	0
bin	0.2	0
bin	0.23333333333333	0
bin	0.26666666666667	0
bin	0.3	0
bin	0.33333333333333	0
bin	0.36666666666667	0
bin	0.4	0
bin	0.43333333333333	0
bin	0.46666666666667	0
bin	0.5	0
statistic scenarioPRJP1.node[0].wlan.radio 	packetErrorRate:histogram
field count 20696
field mean 0.086094568035536
field stddev 0.27324746326132
field sum 1781.8131800635
field sqrsum 1698.5795620768
field min 0
field max 1
attr source  packetErrorRate
attr title  "Packet error rate, histogram"
bin	-INF	0
bin	-0.5	0
bin	-0.43333333333333	0
bin	-0.36666666666667	0
bin	-0.3	0
bin	-0.23333333333333	0
bin	-0.16666666666667	0
bin	-0.1	0
bin	-0.033333333333333	18584
bin	0.033333333333333	124
bin	0.1	63
bin	0.16666666666667	49
bin	0.23333333333333	40
bin	0.3	30
bin	0.36666666666667	23
bin	0.43333333333333	28
bin	0.5	26
bin	0.56666666666667	27
bin	0.63333333333333	15
bin	0.7	20
bin	0.76666666666667	31
bin	0.83333333333333	23
bin	0.9	35
bin	0.96666666666667	1578
bin	1.0333333333333	0
bin	1.1	0
bin	1.1666666666667	0
bin	1.2333333333333	0
bin	1.3	0
bin	1.3666666666667	0
bin	1.4333333333333	0
bin	1.5	0
statistic scenarioPRJP1.node[0].wlan.radio 	minSNIR:histogram
field count 20696
field mean 1516.5966067893
field stddev 6469.1106893975
field sum 31387483.374111
field sqrsum 913675341226.98
field min 0.0013365535927894
field max 231907.5702723
attr source  minSNIR
attr title  "Min SNIR, histogram"
bin	-INF	0
bin	-491.48599168113	0
bin	-425.90353301693	0
bin	-360.32107435272	0
bin	-294.73861568852	0
bin	-229.15615702431	0
bin	-163.57369836011	0
bin	-97.991239695904	0
bin	-32.4087810317	5317
bin	33.173677632505	733
bin	98.756136296709	4184
bin	164.33859496091	3263
bin	229.92105362512	1546
bin	295.50351228932	939
bin	361.08597095353	497
bin	426.66842961773	349
bin	492.25088828194	287
bin	557.83334694614	212
bin	623.41580561034	165
bin	688.99826427455	133
bin	754.58072293875	133
bin	820.16318160296	98
bin	885.74564026716	100
bin	951.32809893137	80
bin	1016.9105575956	52
bin	1082.4930162598	48
bin	1148.075474924	56
bin	1213.6579335882	37
bin	1279.2403922524	47
bin	1344.8228509166	43
bin	1410.4053095808	32
bin	1475.987768245	2345
scalar scenarioPRJP1.node[0].lo0.lo 	droppedPkBitError:count 	0
attr interpolationmode  none
attr source  dropPkBitError
attr title  "packets dropped/bit error, count"
scalar scenarioPRJP1.node[0].lo0.lo 	droppedPkBitError:sum(packetBytes) 	0
attr interpolationmode  none
attr source  dropPkBitError
attr title  "packets dropped/bit error, sum(packetBytes)"
scalar scenarioPRJP1.node[0].lo0.lo 	rcvdPkFromHL:count 	332
attr interpolationmode  none
attr source  packetReceivedFromUpper
attr title  "packets received from higher layer, count"
scalar scenarioPRJP1.node[0].lo0.lo 	rcvdPkFromHL:sum(packetBytes) 	172640
attr interpolationmode  none
attr source  packetReceivedFromUpper
attr title  "packets received from higher layer, sum(packetBytes)"
scalar scenarioPRJP1.node[0].lo0.lo 	passedUpPk:count 	332
attr interpolationmode  none
attr source  packetSentToUpper
attr title  "packets passed to higher layer, count"
scalar scenarioPRJP1.node[0].lo0.lo 	passedUpPk:sum(packetBytes) 	172640
attr interpolationmode  none
attr source  packetSentToUpper
attr title  "packets passed to higher layer, sum(packetBytes)"
scalar scenarioPRJP1.node[5].app 	"Total sent" 	2608
scalar scenarioPRJP1.node[5].app 	"Total received" 	421
scalar scenarioPRJP1.node[5].app 	"Total deleted" 	19
scalar scenarioPRJP1.node[5].app 	dropPk:count 	19
attr interpolationmode  none
attr source  dropPk
attr title  "packets dropped, count"
scalar scenarioPRJP1.node[5].app 	dropPk:sum(packetBytes) 	9728
attr interpolationmode  none
attr source  dropPk
attr title  "packets dropped, sum(packetBytes)"
scalar scenarioPRJP1.node[5].app 	outOfOrderPk:count 	47
attr interpolationmode  none
attr source  outOfOrderPk
attr title  "packets received out of order, count"
scalar scenarioPRJP1.node[5].app 	outOfOrderPk:sum(packetBytes) 	24064
attr interpolationmode  none
attr source  outOfOrderPk
attr title  "packets received out of order, sum(packetBytes)"
scalar scenarioPRJP1.node[5].app 	rcvdPk:count 	421
attr interpolationmode  none
attr source  rcvdPk
attr title  "packets received, count"
scalar scenarioPRJP1.node[5].app 	rcvdPk:sum(packetBytes) 	215552
attr interpolationmode  none
attr source  rcvdPk
attr title  "packets received, sum(packetBytes)"
statistic scenarioPRJP1.node[5].app 	endToEndDelay:histogram
field count 421
field mean 1.3450468680246
field stddev 3.5313306671939
field sum 566.26473143837
field sqrsum 5999.177041541
field min 0.000956048782
field max 19.74954553446
attr interpolationmode  none
attr source  messageAge(rcvdPk)
attr title  "delay, histogram"
attr unit  s
bin	-INF	0
bin	-8.7931706685805	0
bin	-7.6206204395988	0
bin	-6.4480702106172	0
bin	-5.2755199816355	0
bin	-4.1029697526538	0
bin	-2.9304195236722	0
bin	-1.7578692946905	0
bin	-0.58531906570883	319
bin	0.58723116327283	42
bin	1.7597813922545	7
bin	2.9323316212362	10
bin	4.1048818502178	8
bin	5.2774320791995	6
bin	6.4499823081812	2
bin	7.6225325371628	2
bin	8.7950827661445	5
bin	9.9676329951262	1
bin	11.140183224108	2
bin	12.312733453089	4
bin	13.485283682071	1
bin	14.657833911053	3
bin	15.830384140035	3
bin	17.002934369016	4
bin	18.175484597998	0
bin	19.348034826979	2
bin	20.520585055961	0
bin	21.693135284943	0
bin	22.865685513924	0
bin	24.038235742906	0
bin	25.210785971888	0
bin	26.383336200869	0
scalar scenarioPRJP1.node[5].app 	sentPk:count 	2608
attr interpolationmode  none
attr source  sentPk
attr title  "packets sent, count"
scalar scenarioPRJP1.node[5].app 	sentPk:sum(packetBytes) 	1335296
attr interpolationmode  none
attr source  sentPk
attr title  "packets sent, sum(packetBytes)"
scalar scenarioPRJP1.node[5].udp 	droppedPkBadChecksum:count 	0
attr interpolationmode  none
attr title  "packets dropped (checksum error), count"
scalar scenarioPRJP1.node[5].udp 	droppedPkWrongPort:count 	0
attr interpolationmode  none
attr title  "packets dropped (wrong port), count"
scalar scenarioPRJP1.node[5].udp 	passedUpPk:count 	487
attr interpolationmode  none
attr title  "packets passed up, count"
scalar scenarioPRJP1.node[5].udp 	rcvdPk:count 	487
attr interpolationmode  none
attr source  rcvdPk
attr title  "packets received, count"
scalar scenarioPRJP1.node[5].udp 	rcvdPk:sum(packetBytes) 	253240
attr interpolationmode  none
attr source  rcvdPk
attr title  "packets received, sum(packetBytes)"
scalar scenarioPRJP1.node[5].udp 	sentPk:count 	2608
attr interpolationmode  none
attr source  sentPk
attr title  "packets sent, count"
scalar scenarioPRJP1.node[5].udp 	sentPk:sum(packetBytes) 	1356160
attr interpolationmode  none
attr source  sentPk
attr title  "packets sent, sum(packetBytes)"
scalar scenarioPRJP1.node[5].networkLayer.arp 	failedARPResolution:count 	66
attr title  "ARP failed resolutions, count"
scalar scenarioPRJP1.node[5].networkLayer.arp 	completedARPResolution:count 	240
attr title  "ARP completed resolutions, count"
scalar scenarioPRJP1.node[5].networkLayer.arp 	initiatedARPResolution:count 	82
attr title  "ARP initiated resolutions, count"
scalar scenarioPRJP1.node[5].networkLayer.arp 	sentReply:count 	16
attr title  "ARP replies sent, count"
scalar scenarioPRJP1.node[5].networkLayer.arp 	sentReq:count 	225
attr title  "ARP request sent, count"
scalar scenarioPRJP1.node[5].mobility 	startTime 	2.5
scalar scenarioPRJP1.node[5].mobility 	totalTime 	947.5
scalar scenarioPRJP1.node[5].mobility 	stopTime 	950
scalar scenarioPRJP1.node[5].mobility 	minSpeed 	2.475488054971e-13
scalar scenarioPRJP1.node[5].mobility 	maxSpeed 	20.165903518542
scalar scenarioPRJP1.node[5].mobility 	totalDistance 	9872.6776590977
scalar scenarioPRJP1.node[5].mobility 	totalCO2Emission 	2747.5802966857
scalar scenarioPRJP1.node[5].wlan.mgmt 	dataQueueLen:max 	12
attr interpolationmode  sample-hold
attr title  "data queue length, max"
scalar scenarioPRJP1.node[5].wlan.mgmt 	dataQueueLen:timeavg 	0
attr interpolationmode  sample-hold
attr title  "data queue length, timeavg"
scalar scenarioPRJP1.node[5].wlan.mgmt 	dropPkByQueue:count 	0
attr interpolationmode  none
attr source  dropPkByQueue
attr title  "packets dropped by queue, count"
scalar scenarioPRJP1.node[5].wlan.mgmt 	dropPkByQueue:sum(packetBytes) 	0
attr interpolationmode  none
attr source  dropPkByQueue
attr title  "packets dropped by queue, sum(packetBytes)"
scalar scenarioPRJP1.node[5].wlan.mac 	"number of received packets" 	4736
scalar scenarioPRJP1.node[5].wlan.mac 	"number of collisions" 	2518
scalar scenarioPRJP1.node[5].wlan.mac 	"number of internal collisions" 	0
scalar scenarioPRJP1.node[5].wlan.mac 	"number of retry for AC 0" 	23980
scalar scenarioPRJP1.node[5].wlan.mac 	"number of retry for AC 1" 	0
scalar scenarioPRJP1.node[5].wlan.mac 	"number of retry for AC 2" 	0
scalar scenarioPRJP1.node[5].wlan.mac 	"number of retry for AC 3" 	0
scalar scenarioPRJP1.node[5].wlan.mac 	"sent and received bits" 	2602208
scalar scenarioPRJP1.node[5].wlan.mac 	"sent packet within AC 0" 	633
scalar scenarioPRJP1.node[5].wlan.mac 	"sent packet within AC 1" 	0
scalar scenarioPRJP1.node[5].wlan.mac 	"sent packet within AC 2" 	0
scalar scenarioPRJP1.node[5].wlan.mac 	"sent packet within AC 3" 	0
scalar scenarioPRJP1.node[5].wlan.mac 	"sent in TXOP " 	0
scalar scenarioPRJP1.node[5].wlan.mac 	"sentWithoutRetry AC 0" 	568
scalar scenarioPRJP1.node[5].wlan.mac 	"sentWithoutRetry AC 1" 	0
scalar scenarioPRJP1.node[5].wlan.mac 	"sentWithoutRetry AC 2" 	0
scalar scenarioPRJP1.node[5].wlan.mac 	"sentWithoutRetry AC 3" 	0
scalar scenarioPRJP1.node[5].wlan.mac 	"numGivenUp AC 0" 	3979
scalar scenarioPRJP1.node[5].wlan.mac 	"numGivenUp AC 1" 	0
scalar scenarioPRJP1.node[5].wlan.mac 	"numGivenUp AC 2" 	0
scalar scenarioPRJP1.node[5].wlan.mac 	"numGivenUp AC 3" 	0
scalar scenarioPRJP1.node[5].wlan.mac 	"numDropped AC 0" 	0
scalar scenarioPRJP1.node[5].wlan.mac 	"numDropped AC 1" 	0
scalar scenarioPRJP1.node[5].wlan.mac 	"numDropped AC 2" 	0
scalar scenarioPRJP1.node[5].wlan.mac 	"numDropped AC 3" 	0
scalar scenarioPRJP1.node[5].wlan.mac 	rcvdPkFromLL:count 	27750
attr interpolationmode  none
attr source  packetReceivedFromLower
attr title  "packets received from lower layer, count"
scalar scenarioPRJP1.node[5].wlan.mac 	rcvdPkFromLL:sum(packetBytes) 	7641060
attr interpolationmode  none
attr source  packetReceivedFromLower
attr title  "packets received from lower layer, sum(packetBytes)"
scalar scenarioPRJP1.node[5].wlan.mac 	sentDownPk:count 	34975
attr interpolationmode  none
attr source  packetSentToLower
attr title  "packets sent to lower layer, count"
scalar scenarioPRJP1.node[5].wlan.mac 	sentDownPk:sum(packetBytes) 	10574392
attr interpolationmode  none
attr source  packetSentToLower
attr title  "packets sent to lower layer, sum(packetBytes)"
scalar scenarioPRJP1.node[5].wlan.mac 	rcvdPkFromHL:count 	6259
attr interpolationmode  none
attr source  packetReceivedFromUpper
attr title  "packets received from higher layer, count"
scalar scenarioPRJP1.node[5].wlan.mac 	rcvdPkFromHL:sum(packetBytes) 	1773272
attr interpolationmode  none
attr source  packetReceivedFromUpper
attr title  "packets received from higher layer, sum(packetBytes)"
scalar scenarioPRJP1.node[5].wlan.mac 	passedUpPk:count 	4017
attr interpolationmode  none
attr source  packetSentToUpper
attr title  "packets passed to higher layer, count"
scalar scenarioPRJP1.node[5].wlan.mac 	passedUpPk:sum(packetBytes) 	1013980
attr interpolationmode  none
attr source  packetSentToUpper
attr title  "packets passed to higher layer, sum(packetBytes)"
statistic scenarioPRJP1.node[5].wlan.radio 	radioChannel:histogram
field count 1
field mean 3
field stddev -nan
field sum 3
field sqrsum 9
field min 3
field max 3
attr interpolationmode  sample-hold
attr source  radioChannelChanged
attr title  "Radio channel, histogram"
bin	-INF	0
bin	2	0
bin	3	1
bin	4	0
scalar scenarioPRJP1.node[5].wlan.radio 	transmissionState:count 	139900
attr interpolationmode  sample-hold
attr source  transmissionStateChanged
attr title  "Radio transmission state, count"
scalar scenarioPRJP1.node[5].wlan.radio 	receptionState:count 	125979
attr interpolationmode  sample-hold
attr source  receptionStateChanged
attr title  "Radio reception state, count"
scalar scenarioPRJP1.node[5].wlan.radio 	radioMode:count 	69952
attr interpolationmode  sample-hold
attr source  radioModeChanged
attr title  "Radio mode, count"
statistic scenarioPRJP1.node[5].wlan.radio 	symbolErrorRate:histogram
field count 0
field mean -nan
field stddev -nan
field sum 0
field sqrsum 0
field min -nan
field max -nan
attr source  symbolErrorRate
attr title  "Symbol error rate, histogram"
bin	-INF	0
bin	-0.5	0
bin	-0.46666666666667	0
bin	-0.43333333333333	0
bin	-0.4	0
bin	-0.36666666666667	0
bin	-0.33333333333333	0
bin	-0.3	0
bin	-0.26666666666667	0
bin	-0.23333333333333	0
bin	-0.2	0
bin	-0.16666666666667	0
bin	-0.13333333333333	0
bin	-0.1	0
bin	-0.066666666666667	0
bin	-0.033333333333333	0
bin	0	0
bin	0.033333333333333	0
bin	0.066666666666667	0
bin	0.1	0
bin	0.13333333333333	0
bin	0.16666666666667	0
bin	0.2	0
bin	0.23333333333333	0
bin	0.26666666666667	0
bin	0.3	0
bin	0.33333333333333	0
bin	0.36666666666667	0
bin	0.4	0
bin	0.43333333333333	0
bin	0.46666666666667	0
bin	0.5	0
statistic scenarioPRJP1.node[5].wlan.radio 	bitErrorRate:histogram
field count 0
field mean -nan
field stddev -nan
field sum 0
field sqrsum 0
field min -nan
field max -nan
attr source  bitErrorRate
attr title  "Bit error rate, histogram"
bin	-INF	0
bin	-0.5	0
bin	-0.46666666666667	0
bin	-0.43333333333333	0
bin	-0.4	0
bin	-0.36666666666667	0
bin	-0.33333333333333	0
bin	-0.3	0
bin	-0.26666666666667	0
bin	-0.23333333333333	0
bin	-0.2	0
bin	-0.16666666666667	0
bin	-0.13333333333333	0
bin	-0.1	0
bin	-0.066666666666667	0
bin	-0.033333333333333	0
bin	0	0
bin	0.033333333333333	0
bin	0.066666666666667	0
bin	0.1	0
bin	0.13333333333333	0
bin	0.16666666666667	0
bin	0.2	0
bin	0.23333333333333	0
bin	0.26666666666667	0
bin	0.3	0
bin	0.33333333333333	0
bin	0.36666666666667	0
bin	0.4	0
bin	0.43333333333333	0
bin	0.46666666666667	0
bin	0.5	0
statistic scenarioPRJP1.node[5].wlan.radio 	packetErrorRate:histogram
field count 27750
field mean 0.088595923354238
field stddev 0.27821597238985
field sum 2458.5368730801
field sqrsum 2365.7034726198
field min 0
field max 1
attr source  packetErrorRate
attr title  "Packet error rate, histogram"
bin	-INF	0
bin	-0.5	0
bin	-0.43333333333333	0
bin	-0.36666666666667	0
bin	-0.3	0
bin	-0.23333333333333	0
bin	-0.16666666666667	0
bin	-0.1	0
bin	-0.033333333333333	24898
bin	0.033333333333333	170
bin	0.1	81
bin	0.16666666666667	50
bin	0.23333333333333	42
bin	0.3	24
bin	0.36666666666667	29
bin	0.43333333333333	22
bin	0.5	29
bin	0.56666666666667	27
bin	0.63333333333333	20
bin	0.7	25
bin	0.76666666666667	24
bin	0.83333333333333	41
bin	0.9	47
bin	0.96666666666667	2221
bin	1.0333333333333	0
bin	1.1	0
bin	1.1666666666667	0
bin	1.2333333333333	0
bin	1.3	0
bin	1.3666666666667	0
bin	1.4333333333333	0
bin	1.5	0
statistic scenarioPRJP1.node[5].wlan.radio 	minSNIR:histogram
field count 27750
field mean 16919.482761776
field stddev 80093.119576589
field sum 469515646.63929
field sqrsum 1.8595123852929e+14
field min 0.00024615608695088
field max 2858147.7722398
attr source  minSNIR
attr title  "Min SNIR, histogram"
bin	-INF	0
bin	-513.51579339848	0
bin	-444.98556938011	0
bin	-376.45534536173	0
bin	-307.92512134335	0
bin	-239.39489732498	0
bin	-170.8646733066	0
bin	-102.33444928823	0
bin	-33.804225269852	6980
bin	34.725998748524	830
bin	103.2562227669	5229
bin	171.78644678528	3572
bin	240.31667080365	1832
bin	308.84689482203	1009
bin	377.3771188404	680
bin	445.90734285878	464
bin	514.43756687715	362
bin	582.96779089553	266
bin	651.4980149139	213
bin	720.02823893228	194
bin	788.55846295066	192
bin	857.08868696903	133
bin	925.61891098741	108
bin	994.14913500578	121
bin	1062.6793590242	104
bin	1131.2095830425	80
bin	1199.7398070609	94
bin	1268.2700310793	77
bin	1336.8002550977	73
bin	1405.330479116	71
bin	1473.8607031344	82
bin	1542.3909271528	4984
scalar scenarioPRJP1.node[5].lo0.lo 	droppedPkBitError:count 	0
attr interpolationmode  none
attr source  dropPkBitError
attr title  "packets dropped/bit error, count"
scalar scenarioPRJP1.node[5].lo0.lo 	droppedPkBitError:sum(packetBytes) 	0
attr interpolationmode  none
attr source  dropPkBitError
attr title  "packets dropped/bit error, sum(packetBytes)"
scalar scenarioPRJP1.node[5].lo0.lo 	rcvdPkFromHL:count 	487
attr interpolationmode  none
attr source  packetReceivedFromUpper
attr title  "packets received from higher layer, count"
scalar scenarioPRJP1.node[5].lo0.lo 	rcvdPkFromHL:sum(packetBytes) 	253240
attr interpolationmode  none
attr source  packetReceivedFromUpper
attr title  "packets received from higher layer, sum(packetBytes)"
scalar scenarioPRJP1.node[5].lo0.lo 	passedUpPk:count 	487
attr interpolationmode  none
attr source  packetSentToUpper
attr title  "packets passed to higher layer, count"
scalar scenarioPRJP1.node[5].lo0.lo 	passedUpPk:sum(packetBytes) 	253240
attr interpolationmode  none
attr source  packetSentToUpper
attr title  "packets passed to higher layer, sum(packetBytes)"
scalar scenarioPRJP1.node[1].app 	"Total sent" 	2604
scalar scenarioPRJP1.node[1].app 	"Total received" 	465
scalar scenarioPRJP1.node[1].app 	"Total deleted" 	20
scalar scenarioPRJP1.node[1].app 	dropPk:count 	20
attr interpolationmode  none
attr source  dropPk
attr title  "packets dropped, count"
scalar scenarioPRJP1.node[1].app 	dropPk:sum(packetBytes) 	10240
attr interpolationmode  none
attr source  dropPk
attr title  "packets dropped, sum(packetBytes)"
scalar scenarioPRJP1.node[1].app 	outOfOrderPk:count 	38
attr interpolationmode  none
attr source  outOfOrderPk
attr title  "packets received out of order, count"
scalar scenarioPRJP1.node[1].app 	outOfOrderPk:sum(packetBytes) 	19456
attr interpolationmode  none
attr source  outOfOrderPk
attr title  "packets received out of order, sum(packetBytes)"
scalar scenarioPRJP1.node[1].app 	rcvdPk:count 	465
attr interpolationmode  none
attr source  rcvdPk
attr title  "packets received, count"
scalar scenarioPRJP1.node[1].app 	rcvdPk:sum(packetBytes) 	238080
attr interpolationmode  none
attr source  rcvdPk
attr title  "packets received, sum(packetBytes)"
statistic scenarioPRJP1.node[1].app 	endToEndDelay:histogram
field count 465
field mean 1.5549150429604
field stddev 3.9840076508057
field sum 723.0354949766
field sqrsum 8489.0138379523
field min 0.000956152965
field max 19.650188672831
attr interpolationmode  none
attr source  messageAge(rcvdPk)
attr title  "delay, histogram"
attr unit  s
bin	-INF	0
bin	-9.823648302388	0
bin	-8.5136999923783	0
bin	-7.2037516823685	0
bin	-5.8938033723588	0
bin	-4.5838550623491	0
bin	-3.2739067523393	0
bin	-1.9639584423296	0
bin	-0.65401013231987	342
bin	0.65593817768987	56
bin	1.9658864876996	13
bin	3.2758347977093	8
bin	4.5857831077191	6
bin	5.8957314177288	3
bin	7.2056797277385	4
bin	8.5156280377483	4
bin	9.825576347758	1
bin	11.135524657768	1
bin	12.445472967777	3
bin	13.755421277787	9
bin	15.065369587797	6
bin	16.375317897807	3
bin	17.685266207816	0
bin	18.995214517826	6
bin	20.305162827836	0
bin	21.615111137846	0
bin	22.925059447855	0
bin	24.235007757865	0
bin	25.544956067875	0
bin	26.854904377885	0
bin	28.164852687894	0
bin	29.474800997904	0
scalar scenarioPRJP1.node[1].app 	sentPk:count 	2604
attr interpolationmode  none
attr source  sentPk
attr title  "packets sent, count"
scalar scenarioPRJP1.node[1].app 	sentPk:sum(packetBytes) 	1333248
attr interpolationmode  none
attr source  sentPk
attr title  "packets sent, sum(packetBytes)"
scalar scenarioPRJP1.node[1].udp 	droppedPkBadChecksum:count 	0
attr interpolationmode  none
attr title  "packets dropped (checksum error), count"
scalar scenarioPRJP1.node[1].udp 	droppedPkWrongPort:count 	0
attr interpolationmode  none
attr title  "packets dropped (wrong port), count"
scalar scenarioPRJP1.node[1].udp 	passedUpPk:count 	523
attr interpolationmode  none
attr title  "packets passed up, count"
scalar scenarioPRJP1.node[1].udp 	rcvdPk:count 	523
attr interpolationmode  none
attr source  rcvdPk
attr title  "packets received, count"
scalar scenarioPRJP1.node[1].udp 	rcvdPk:sum(packetBytes) 	271960
attr interpolationmode  none
attr source  rcvdPk
attr title  "packets received, sum(packetBytes)"
scalar scenarioPRJP1.node[1].udp 	sentPk:count 	2604
attr interpolationmode  none
attr source  sentPk
attr title  "packets sent, count"
scalar scenarioPRJP1.node[1].udp 	sentPk:sum(packetBytes) 	1354080
attr interpolationmode  none
attr source  sentPk
attr title  "packets sent, sum(packetBytes)"
scalar scenarioPRJP1.node[1].networkLayer.arp 	failedARPResolution:count 	112
attr title  "ARP failed resolutions, count"
scalar scenarioPRJP1.node[1].networkLayer.arp 	completedARPResolution:count 	250
attr title  "ARP completed resolutions, count"
scalar scenarioPRJP1.node[1].networkLayer.arp 	initiatedARPResolution:count 	131
attr title  "ARP initiated resolutions, count"
scalar scenarioPRJP1.node[1].networkLayer.arp 	sentReply:count 	11
attr title  "ARP replies sent, count"
scalar scenarioPRJP1.node[1].networkLayer.arp 	sentReq:count 	375
attr title  "ARP request sent, count"
scalar scenarioPRJP1.node[1].mobility 	startTime 	0.1
scalar scenarioPRJP1.node[1].mobility 	totalTime 	949.9
scalar scenarioPRJP1.node[1].mobility 	stopTime 	950
scalar scenarioPRJP1.node[1].mobility 	minSpeed 	2.4754502045694e-13
scalar scenarioPRJP1.node[1].mobility 	maxSpeed 	19.299584661166
scalar scenarioPRJP1.node[1].mobility 	totalDistance 	10277.074472144
scalar scenarioPRJP1.node[1].mobility 	totalCO2Emission 	2754.9955661296
scalar scenarioPRJP1.node[1].wlan.mgmt 	dataQueueLen:max 	8
attr interpolationmode  sample-hold
attr title  "data queue length, max"
scalar scenarioPRJP1.node[1].wlan.mgmt 	dataQueueLen:timeavg 	0
attr interpolationmode  sample-hold
attr title  "data queue length, timeavg"
scalar scenarioPRJP1.node[1].wlan.mgmt 	dropPkByQueue:count 	0
attr interpolationmode  none
attr source  dropPkByQueue
attr title  "packets dropped by queue, count"
scalar scenarioPRJP1.node[1].wlan.mgmt 	dropPkByQueue:sum(packetBytes) 	0
attr interpolationmode  none
attr source  dropPkByQueue
attr title  "packets dropped by queue, sum(packetBytes)"
scalar scenarioPRJP1.node[1].wlan.mac 	"number of received packets" 	4976
scalar scenarioPRJP1.node[1].wlan.mac 	"number of collisions" 	2784
scalar scenarioPRJP1.node[1].wlan.mac 	"number of internal collisions" 	0
scalar scenarioPRJP1.node[1].wlan.mac 	"number of retry for AC 0" 	23411
scalar scenarioPRJP1.node[1].wlan.mac 	"number of retry for AC 1" 	0
scalar scenarioPRJP1.node[1].wlan.mac 	"number of retry for AC 2" 	0
scalar scenarioPRJP1.node[1].wlan.mac 	"number of retry for AC 3" 	0
scalar scenarioPRJP1.node[1].wlan.mac 	"sent and received bits" 	2862752
scalar scenarioPRJP1.node[1].wlan.mac 	"sent packet within AC 0" 	632
scalar scenarioPRJP1.node[1].wlan.mac 	"sent packet within AC 1" 	0
scalar scenarioPRJP1.node[1].wlan.mac 	"sent packet within AC 2" 	0
scalar scenarioPRJP1.node[1].wlan.mac 	"sent packet within AC 3" 	0
scalar scenarioPRJP1.node[1].wlan.mac 	"sent in TXOP " 	0
scalar scenarioPRJP1.node[1].wlan.mac 	"sentWithoutRetry AC 0" 	595
scalar scenarioPRJP1.node[1].wlan.mac 	"sentWithoutRetry AC 1" 	0
scalar scenarioPRJP1.node[1].wlan.mac 	"sentWithoutRetry AC 2" 	0
scalar scenarioPRJP1.node[1].wlan.mac 	"sentWithoutRetry AC 3" 	0
scalar scenarioPRJP1.node[1].wlan.mac 	"numGivenUp AC 0" 	3891
scalar scenarioPRJP1.node[1].wlan.mac 	"numGivenUp AC 1" 	0
scalar scenarioPRJP1.node[1].wlan.mac 	"numGivenUp AC 2" 	0
scalar scenarioPRJP1.node[1].wlan.mac 	"numGivenUp AC 3" 	0
scalar scenarioPRJP1.node[1].wlan.mac 	"numDropped AC 0" 	0
scalar scenarioPRJP1.node[1].wlan.mac 	"numDropped AC 1" 	0
scalar scenarioPRJP1.node[1].wlan.mac 	"numDropped AC 2" 	0
scalar scenarioPRJP1.node[1].wlan.mac 	"numDropped AC 3" 	0
scalar scenarioPRJP1.node[1].wlan.mac 	rcvdPkFromLL:count 	29342
attr interpolationmode  none
attr source  packetReceivedFromLower
attr title  "packets received from lower layer, count"
scalar scenarioPRJP1.node[1].wlan.mac 	rcvdPkFromLL:sum(packetBytes) 	8031098
attr interpolationmode  none
attr source  packetReceivedFromLower
attr title  "packets received from lower layer, sum(packetBytes)"
scalar scenarioPRJP1.node[1].wlan.mac 	sentDownPk:count 	34827
attr interpolationmode  none
attr source  packetSentToLower
attr title  "packets sent to lower layer, count"
scalar scenarioPRJP1.node[1].wlan.mac 	sentDownPk:sum(packetBytes) 	10157396
attr interpolationmode  none
attr source  packetSentToLower
attr title  "packets sent to lower layer, sum(packetBytes)"
scalar scenarioPRJP1.node[1].wlan.mac 	rcvdPkFromHL:count 	6441
attr interpolationmode  none
attr source  packetReceivedFromUpper
attr title  "packets received from higher layer, count"
scalar scenarioPRJP1.node[1].wlan.mac 	rcvdPkFromHL:sum(packetBytes) 	1744028
attr interpolationmode  none
attr source  packetReceivedFromUpper
attr title  "packets received from higher layer, sum(packetBytes)"
scalar scenarioPRJP1.node[1].wlan.mac 	passedUpPk:count 	4329
attr interpolationmode  none
attr source  packetSentToUpper
attr title  "packets passed to higher layer, count"
scalar scenarioPRJP1.node[1].wlan.mac 	passedUpPk:sum(packetBytes) 	1043148
attr interpolationmode  none
attr source  packetSentToUpper
attr title  "packets passed to higher layer, sum(packetBytes)"
statistic scenarioPRJP1.node[1].wlan.radio 	radioChannel:histogram
field count 1
field mean 3
field stddev -nan
field sum 3
field sqrsum 9
field min 3
field max 3
attr interpolationmode  sample-hold
attr source  radioChannelChanged
attr title  "Radio channel, histogram"
bin	-INF	0
bin	2	0
bin	3	1
bin	4	0
scalar scenarioPRJP1.node[1].wlan.radio 	transmissionState:count 	139308
attr interpolationmode  sample-hold
attr source  transmissionStateChanged
attr title  "Radio transmission state, count"
scalar scenarioPRJP1.node[1].wlan.radio 	receptionState:count 	128842
attr interpolationmode  sample-hold
attr source  receptionStateChanged
attr title  "Radio reception state, count"
scalar scenarioPRJP1.node[1].wlan.radio 	radioMode:count 	69656
attr interpolationmode  sample-hold
attr source  radioModeChanged
attr title  "Radio mode, count"
statistic scenarioPRJP1.node[1].wlan.radio 	symbolErrorRate:histogram
field count 0
field mean -nan
field stddev -nan
field sum 0
field sqrsum 0
field min -nan
field max -nan
attr source  symbolErrorRate
attr title  "Symbol error rate, histogram"
bin	-INF	0
bin	-0.5	0
bin	-0.46666666666667	0
bin	-0.43333333333333	0
bin	-0.4	0
bin	-0.36666666666667	0
bin	-0.33333333333333	0
bin	-0.3	0
bin	-0.26666666666667	0
bin	-0.23333333333333	0
bin	-0.2	0
bin	-0.16666666666667	0
bin	-0.13333333333333	0
bin	-0.1	0
bin	-0.066666666666667	0
bin	-0.033333333333333	0
bin	0	0
bin	0.033333333333333	0
bin	0.066666666666667	0
bin	0.1	0
bin	0.13333333333333	0
bin	0.16666666666667	0
bin	0.2	0
bin	0.23333333333333	0
bin	0.26666666666667	0
bin	0.3	0
bin	0.33333333333333	0
bin	0.36666666666667	0
bin	0.4	0
bin	0.43333333333333	0
bin	0.46666666666667	0
bin	0.5	0
statistic scenarioPRJP1.node[1].wlan.radio 	bitErrorRate:histogram
field count 0
field mean -nan
field stddev -nan
field sum 0
field sqrsum 0
field min -nan
field max -nan
attr source  bitErrorRate
attr title  "Bit error rate, histogram"
bin	-INF	0
bin	-0.5	0
bin	-0.46666666666667	0
bin	-0.43333333333333	0
bin	-0.4	0
bin	-0.36666666666667	0
bin	-0.33333333333333	0
bin	-0.3	0
bin	-0.26666666666667	0
bin	-0.23333333333333	0
bin	-0.2	0
bin	-0.16666666666667	0
bin	-0.13333333333333	0
bin	-0.1	0
bin	-0.066666666666667	0
bin	-0.033333333333333	0
bin	0	0
bin	0.033333333333333	0
bin	0.066666666666667	0
bin	0.1	0
bin	0.13333333333333	0
bin	0.16666666666667	0
bin	0.2	0
bin	0.23333333333333	0
bin	0.26666666666667	0
bin	0.3	0
bin	0.33333333333333	0
bin	0.36666666666667	0
bin	0.4	0
bin	0.43333333333333	0
bin	0.46666666666667	0
bin	0.5	0
statistic scenarioPRJP1.node[1].wlan.radio 	packetErrorRate:histogram
field count 29342
field mean 0.092830015046674
field stddev 0.28454134220369
field sum 2723.8183014995
field sqrsum 2628.4102286012
field min 0
field max 1
attr source  packetErrorRate
attr title  "Packet error rate, histogram"
bin	-INF	0
bin	-8.707252076412e-06	0
bin	-7.5462851328904e-06	0
bin	-6.3853181893688e-06	0
bin	-5.2243512458472e-06	0
bin	-4.0633843023256e-06	0
bin	-2.902417358804e-06	0
bin	-1.7414504152824e-06	0
bin	-5.804834717608e-07	24865
bin	5.804834717608e-07	123
bin	1.7414504152824e-06	53
bin	2.902417358804e-06	30
bin	4.0633843023256e-06	31
bin	5.2243512458472e-06	21
bin	6.3853181893688e-06	19
bin	7.5462851328904e-06	9
bin	8.707252076412e-06	22
bin	9.8682190199336e-06	9
bin	1.1029185963455e-05	8
bin	1.2190152906977e-05	7
bin	1.3351119850498e-05	11
bin	1.451208679402e-05	10
bin	1.5673053737542e-05	9
bin	1.6834020681063e-05	6
bin	1.7994987624585e-05	4
bin	1.9155954568106e-05	4
bin	2.0316921511628e-05	5
bin	2.147788845515e-05	6
bin	2.2638855398671e-05	6
bin	2.3799822342193e-05	2
bin	2.4960789285714e-05	5
bin	2.6121756229236e-05	4077
statistic scenarioPRJP1.node[1].wlan.radio 	minSNIR:histogram
field count 29342
field mean 8228.4572085498
field stddev 47740.232943993
field sum 241439391.41327
field sqrsum 68858622381524
field min 0.00018784078455399
field max 1512186.872346
attr source  minSNIR
attr title  "Min SNIR, histogram"
bin	-INF	0
bin	-4320.1405473785	0
bin	-3743.1032718836	0
bin	-3166.0659963887	0
bin	-2589.0287208938	0
bin	-2011.9914453989	0
bin	-1434.954169904	0
bin	-857.91689440914	0
bin	-280.87961891425	19876
bin	296.15765658065	3781
bin	873.19493207554	760
bin	1450.2322075704	436
bin	2027.2694830653	314
bin	2604.3067585602	278
bin	3181.3440340551	224
bin	3758.38130955	180
bin	4335.4185850449	129
bin	4912.4558605398	152
bin	5489.4931360347	130
bin	6066.5304115296	127
bin	6643.5676870245	125
bin	7220.6049625194	114
bin	7797.6422380143	120
bin	8374.6795135092	101
bin	8951.7167890041	84
bin	9528.754064499	79
bin	10105.791339994	71
bin	10682.828615489	79
bin	11259.865890984	49
bin	11836.903166479	71
bin	12413.940441973	52
bin	12990.977717468	2010
scalar scenarioPRJP1.node[1].lo0.lo 	droppedPkBitError:count 	0
attr interpolationmode  none
attr source  dropPkBitError
attr title  "packets dropped/bit error, count"
scalar scenarioPRJP1.node[1].lo0.lo 	droppedPkBitError:sum(packetBytes) 	0
attr interpolationmode  none
attr source  dropPkBitError
attr title  "packets dropped/bit error, sum(packetBytes)"
scalar scenarioPRJP1.node[1].lo0.lo 	rcvdPkFromHL:count 	523
attr interpolationmode  none
attr source  packetReceivedFromUpper
attr title  "packets received from higher layer, count"
scalar scenarioPRJP1.node[1].lo0.lo 	rcvdPkFromHL:sum(packetBytes) 	271960
attr interpolationmode  none
attr source  packetReceivedFromUpper
attr title  "packets received from higher layer, sum(packetBytes)"
scalar scenarioPRJP1.node[1].lo0.lo 	passedUpPk:count 	523
attr interpolationmode  none
attr source  packetSentToUpper
attr title  "packets passed to higher layer, count"
scalar scenarioPRJP1.node[1].lo0.lo 	passedUpPk:sum(packetBytes) 	271960
attr interpolationmode  none
attr source  packetSentToUpper
attr title  "packets passed to higher layer, sum(packetBytes)"
scalar scenarioPRJP1.node[6].app 	"Total sent" 	2610
scalar scenarioPRJP1.node[6].app 	"Total received" 	470
scalar scenarioPRJP1.node[6].app 	"Total deleted" 	15
scalar scenarioPRJP1.node[6].app 	dropPk:count 	15
attr interpolationmode  none
attr source  dropPk
attr title  "packets dropped, count"
scalar scenarioPRJP1.node[6].app 	dropPk:sum(packetBytes) 	7680
attr interpolationmode  none
attr source  dropPk
attr title  "packets dropped, sum(packetBytes)"
scalar scenarioPRJP1.node[6].app 	outOfOrderPk:count 	47
attr interpolationmode  none
attr source  outOfOrderPk
attr title  "packets received out of order, count"
scalar scenarioPRJP1.node[6].app 	outOfOrderPk:sum(packetBytes) 	24064
attr interpolationmode  none
attr source  outOfOrderPk
attr title  "packets received out of order, sum(packetBytes)"
scalar scenarioPRJP1.node[6].app 	rcvdPk:count 	470
attr interpolationmode  none
attr source  rcvdPk
attr title  "packets received, count"
scalar scenarioPRJP1.node[6].app 	rcvdPk:sum(packetBytes) 	240640
attr interpolationmode  none
attr source  rcvdPk
attr title  "packets received, sum(packetBytes)"
statistic scenarioPRJP1.node[6].app 	endToEndDelay:histogram
field count 470
field mean 0.9515298791769
field stddev 3.0095568698079
field sum 447.21904321314
field sqrsum 4673.4781493273
field min 0.000956033385
field max 19.638196040774
attr interpolationmode  none
attr source  messageAge(rcvdPk)
attr title  "delay, histogram"
attr unit  s
bin	-INF	0
bin	-9.8176519863595	0
bin	-8.5085031851536	0
bin	-7.1993543839476	0
bin	-5.8902055827417	0
bin	-4.5810567815358	0
bin	-3.2719079803298	0
bin	-1.9627591791239	0
bin	-0.65361037791797	378
bin	0.65553842328797	47
bin	1.9646872244939	12
bin	3.2738360256998	3
bin	4.5829848269058	5
bin	5.8921336281117	4
bin	7.2012824293176	3
bin	8.5104312305236	2
bin	9.8195800317295	2
bin	11.128728832935	2
bin	12.437877634141	2
bin	13.747026435347	2
bin	15.056175236553	2
bin	16.365324037759	2
bin	17.674472838965	1
bin	18.983621640171	3
bin	20.292770441377	0
bin	21.601919242583	0
bin	22.911068043789	0
bin	24.220216844995	0
bin	25.529365646201	0
bin	26.838514447407	0
bin	28.147663248613	0
bin	29.456812049818	0
scalar scenarioPRJP1.node[6].app 	sentPk:count 	2610
attr interpolationmode  none
attr source  sentPk
attr title  "packets sent, count"
scalar scenarioPRJP1.node[6].app 	sentPk:sum(packetBytes) 	1336320
attr interpolationmode  none
attr source  sentPk
attr title  "packets sent, sum(packetBytes)"
scalar scenarioPRJP1.node[6].udp 	droppedPkBadChecksum:count 	0
attr interpolationmode  none
attr title  "packets dropped (checksum error), count"
scalar scenarioPRJP1.node[6].udp 	droppedPkWrongPort:count 	0
attr interpolationmode  none
attr title  "packets dropped (wrong port), count"
scalar scenarioPRJP1.node[6].udp 	passedUpPk:count 	532
attr interpolationmode  none
attr title  "packets passed up, count"
scalar scenarioPRJP1.node[6].udp 	rcvdPk:count 	532
attr interpolationmode  none
attr source  rcvdPk
attr title  "packets received, count"
scalar scenarioPRJP1.node[6].udp 	rcvdPk:sum(packetBytes) 	276640
attr interpolationmode  none
attr source  rcvdPk
attr title  "packets received, sum(packetBytes)"
scalar scenarioPRJP1.node[6].udp 	sentPk:count 	2610
attr interpolationmode  none
attr source  sentPk
attr title  "packets sent, count"
scalar scenarioPRJP1.node[6].udp 	sentPk:sum(packetBytes) 	1357200
attr interpolationmode  none
attr source  sentPk
attr title  "packets sent, sum(packetBytes)"
scalar scenarioPRJP1.node[6].networkLayer.arp 	failedARPResolution:count 	60
attr title  "ARP failed resolutions, count"
scalar scenarioPRJP1.node[6].networkLayer.arp 	completedARPResolution:count 	284
attr title  "ARP completed resolutions, count"
scalar scenarioPRJP1.node[6].networkLayer.arp 	initiatedARPResolution:count 	75
attr title  "ARP initiated resolutions, count"
scalar scenarioPRJP1.node[6].networkLayer.arp 	sentReply:count 	20
attr title  "ARP replies sent, count"
scalar scenarioPRJP1.node[6].networkLayer.arp 	sentReq:count 	211
attr title  "ARP request sent, count"
scalar scenarioPRJP1.node[6].mobility 	startTime 	2.5
scalar scenarioPRJP1.node[6].mobility 	totalTime 	947.5
scalar scenarioPRJP1.node[6].mobility 	stopTime 	950
scalar scenarioPRJP1.node[6].mobility 	minSpeed 	2.475516125998e-13
scalar scenarioPRJP1.node[6].mobility 	maxSpeed 	18.550004293353
scalar scenarioPRJP1.node[6].mobility 	totalDistance 	8926.3212088212
scalar scenarioPRJP1.node[6].mobility 	totalCO2Emission 	2515.457873809
scalar scenarioPRJP1.node[6].wlan.mgmt 	dataQueueLen:max 	18
attr interpolationmode  sample-hold
attr title  "data queue length, max"
scalar scenarioPRJP1.node[6].wlan.mgmt 	dataQueueLen:timeavg 	0
attr interpolationmode  sample-hold
attr title  "data queue length, timeavg"
scalar scenarioPRJP1.node[6].wlan.mgmt 	dropPkByQueue:count 	0
attr interpolationmode  none
attr source  dropPkByQueue
attr title  "packets dropped by queue, count"
scalar scenarioPRJP1.node[6].wlan.mgmt 	dropPkByQueue:sum(packetBytes) 	0
attr interpolationmode  none
attr source  dropPkByQueue
attr title  "packets dropped by queue, sum(packetBytes)"
scalar scenarioPRJP1.node[6].wlan.mac 	"number of received packets" 	5355
scalar scenarioPRJP1.node[6].wlan.mac 	"number of collisions" 	2572
scalar scenarioPRJP1.node[6].wlan.mac 	"number of internal collisions" 	0
scalar scenarioPRJP1.node[6].wlan.mac 	"number of retry for AC 0" 	22150
scalar scenarioPRJP1.node[6].wlan.mac 	"number of retry for AC 1" 	0
scalar scenarioPRJP1.node[6].wlan.mac 	"number of retry for AC 2" 	0
scalar scenarioPRJP1.node[6].wlan.mac 	"number of retry for AC 3" 	0
scalar scenarioPRJP1.node[6].wlan.mac 	"sent and received bits" 	4454112
scalar scenarioPRJP1.node[6].wlan.mac 	"sent packet within AC 0" 	1218
scalar scenarioPRJP1.node[6].wlan.mac 	"sent packet within AC 1" 	0
scalar scenarioPRJP1.node[6].wlan.mac 	"sent packet within AC 2" 	0
scalar scenarioPRJP1.node[6].wlan.mac 	"sent packet within AC 3" 	0
scalar scenarioPRJP1.node[6].wlan.mac 	"sent in TXOP " 	0
scalar scenarioPRJP1.node[6].wlan.mac 	"sentWithoutRetry AC 0" 	1143
scalar scenarioPRJP1.node[6].wlan.mac 	"sentWithoutRetry AC 1" 	0
scalar scenarioPRJP1.node[6].wlan.mac 	"sentWithoutRetry AC 2" 	0
scalar scenarioPRJP1.node[6].wlan.mac 	"sentWithoutRetry AC 3" 	0
scalar scenarioPRJP1.node[6].wlan.mac 	"numGivenUp AC 0" 	3673
scalar scenarioPRJP1.node[6].wlan.mac 	"numGivenUp AC 1" 	0
scalar scenarioPRJP1.node[6].wlan.mac 	"numGivenUp AC 2" 	0
scalar scenarioPRJP1.node[6].wlan.mac 	"numGivenUp AC 3" 	0
scalar scenarioPRJP1.node[6].wlan.mac 	"numDropped AC 0" 	0
scalar scenarioPRJP1.node[6].wlan.mac 	"numDropped AC 1" 	0
scalar scenarioPRJP1.node[6].wlan.mac 	"numDropped AC 2" 	0
scalar scenarioPRJP1.node[6].wlan.mac 	"numDropped AC 3" 	0
scalar scenarioPRJP1.node[6].wlan.mac 	rcvdPkFromLL:count 	37604
attr interpolationmode  none
attr source  packetReceivedFromLower
attr title  "packets received from lower layer, count"
scalar scenarioPRJP1.node[6].wlan.mac 	rcvdPkFromLL:sum(packetBytes) 	10363080
attr interpolationmode  none
attr source  packetReceivedFromLower
attr title  "packets received from lower layer, sum(packetBytes)"
scalar scenarioPRJP1.node[6].wlan.mac 	sentDownPk:count 	34418
attr interpolationmode  none
attr source  packetSentToLower
attr title  "packets sent to lower layer, count"
scalar scenarioPRJP1.node[6].wlan.mac 	sentDownPk:sum(packetBytes) 	10340958
attr interpolationmode  none
attr source  packetSentToLower
attr title  "packets sent to lower layer, sum(packetBytes)"
scalar scenarioPRJP1.node[6].wlan.mac 	rcvdPkFromHL:count 	6913
attr interpolationmode  none
attr source  packetReceivedFromUpper
attr title  "packets received from higher layer, count"
scalar scenarioPRJP1.node[6].wlan.mac 	rcvdPkFromHL:sum(packetBytes) 	1935896
attr interpolationmode  none
attr source  packetReceivedFromUpper
attr title  "packets received from higher layer, sum(packetBytes)"
scalar scenarioPRJP1.node[6].wlan.mac 	passedUpPk:count 	5394
attr interpolationmode  none
attr source  packetSentToUpper
attr title  "packets passed to higher layer, count"
scalar scenarioPRJP1.node[6].wlan.mac 	passedUpPk:sum(packetBytes) 	1207476
attr interpolationmode  none
attr source  packetSentToUpper
attr title  "packets passed to higher layer, sum(packetBytes)"
statistic scenarioPRJP1.node[6].wlan.radio 	radioChannel:histogram
field count 1
field mean 3
field stddev -nan
field sum 3
field sqrsum 9
field min 3
field max 3
attr interpolationmode  sample-hold
attr source  radioChannelChanged
attr title  "Radio channel, histogram"
bin	-INF	0
bin	2	0
bin	3	1
bin	4	0
scalar scenarioPRJP1.node[6].wlan.radio 	transmissionState:count 	137672
attr interpolationmode  sample-hold
attr source  transmissionStateChanged
attr title  "Radio transmission state, count"
scalar scenarioPRJP1.node[6].wlan.radio 	receptionState:count 	144638
attr interpolationmode  sample-hold
attr source  receptionStateChanged
attr title  "Radio reception state, count"
scalar scenarioPRJP1.node[6].wlan.radio 	radioMode:count 	68838
attr interpolationmode  sample-hold
attr source  radioModeChanged
attr title  "Radio mode, count"
statistic scenarioPRJP1.node[6].wlan.radio 	symbolErrorRate:histogram
field count 0
field mean -nan
field stddev -nan
field sum 0
field sqrsum 0
field min -nan
field max -nan
attr source  symbolErrorRate
attr title  "Symbol error rate, histogram"
bin	-INF	0
bin	-0.5	0
bin	-0.46666666666667	0
bin	-0.43333333333333	0
bin	-0.4	0
bin	-0.36666666666667	0
bin	-0.33333333333333	0
bin	-0.3	0
bin	-0.26666666666667	0
bin	-0.23333333333333	0
bin	-0.2	0
bin	-0.16666666666667	0
bin	-0.13333333333333	0
bin	-0.1	0
bin	-0.066666666666667	0
bin	-0.033333333333333	0
bin	0	0
bin	0.033333333333333	0
bin	0.066666666666667	0
bin	0.1	0
bin	0.13333333333333	0
bin	0.16666666666667	0
bin	0.2	0
bin	0.23333333333333	0
bin	0.26666666666667	0
bin	0.3	0
bin	0.33333333333333	0
bin	0.36666666666667	0
bin	0.4	0
bin	0.43333333333333	0
bin	0.46666666666667	0
bin	0.5	0
statistic scenarioPRJP1.node[6].wlan.radio 	bitErrorRate:histogram
field count 0
field mean -nan
field stddev -nan
field sum 0
field sqrsum 0
field min -nan
field max -nan
attr source  bitErrorRate
attr title  "Bit error rate, histogram"
bin	-INF	0
bin	-0.5	0
bin	-0.46666666666667	0
bin	-0.43333333333333	0
bin	-0.4	0
bin	-0.36666666666667	0
bin	-0.33333333333333	0
bin	-0.3	0
bin	-0.26666666666667	0
bin	-0.23333333333333	0
bin	-0.2	0
bin	-0.16666666666667	0
bin	-0.13333333333333	0
bin	-0.1	0
bin	-0.066666666666667	0
bin	-0.033333333333333	0
bin	0	0
bin	0.033333333333333	0
bin	0.066666666666667	0
bin	0.1	0
bin	0.13333333333333	0
bin	0.16666666666667	0
bin	0.2	0
bin	0.23333333333333	0
bin	0.26666666666667	0
bin	0.3	0
bin	0.33333333333333	0
bin	0.36666666666667	0
bin	0.4	0
bin	0.43333333333333	0
bin	0.46666666666667	0
bin	0.5	0
statistic scenarioPRJP1.node[6].wlan.radio 	packetErrorRate:histogram
field count 37604
field mean 0.066806928438511
field stddev 0.24407372369918
field sum 2512.2077370018
field sqrsum 2407.9181442307
field min 0
field max 1
attr source  packetErrorRate
attr title  "Packet error rate, histogram"
bin	-INF	0
bin	-0.062728689792247	0
bin	-0.054364864486614	0
bin	-0.046001039180981	0
bin	-0.037637213875348	0
bin	-0.029273388569715	0
bin	-0.020909563264082	0
bin	-0.012545737958449	0
bin	-0.0041819126528164	34339
bin	0.0041819126528164	174
bin	0.012545737958449	74
bin	0.020909563264082	49
bin	0.029273388569715	49
bin	0.037637213875348	38
bin	0.046001039180981	22
bin	0.054364864486614	23
bin	0.062728689792247	19
bin	0.07109251509788	18
bin	0.079456340403513	16
bin	0.087820165709145	11
bin	0.096183991014778	10
bin	0.10454781632041	10
bin	0.11291164162604	16
bin	0.12127546693168	11
bin	0.12963929223731	8
bin	0.13800311754294	9
bin	0.14636694284858	1
bin	0.15473076815421	10
bin	0.16309459345984	8
bin	0.17145841876547	7
bin	0.17982224407111	14
bin	0.18818606937674	2668
statistic scenarioPRJP1.node[6].wlan.radio 	minSNIR:histogram
field count 37604
field mean 10079.465737678
field stddev 47774.689154604
field sum 379028229.59963
field sqrsum 89646276052229
field min 0.0002668911759632
field max 1080907.0676298
attr source  minSNIR
attr title  "Min SNIR, histogram"
bin	-INF	0
bin	-3446.9375627346	0
bin	-2986.7309081757	0
bin	-2526.5242536169	0
bin	-2066.317599058	0
bin	-1606.1109444991	0
bin	-1145.9042899403	0
bin	-685.6976353814	0
bin	-225.49098082253	19790
bin	234.71567373634	7257
bin	694.9223282952	1651
bin	1155.1289828541	852
bin	1615.3356374129	594
bin	2075.5422919718	468
bin	2535.7489465307	398
bin	2995.9556010895	312
bin	3456.1622556484	254
bin	3916.3689102073	231
bin	4376.5755647662	195
bin	4836.782219325	191
bin	5296.9888738839	185
bin	5757.1955284428	142
bin	6217.4021830016	123
bin	6677.6088375605	148
bin	7137.8154921194	134
bin	7598.0221466782	101
bin	8058.2288012371	98
bin	8518.435455796	106
bin	8978.6421103548	75
bin	9438.8487649137	80
bin	9899.0554194726	74
bin	10359.262074031	4145
scalar scenarioPRJP1.node[6].lo0.lo 	droppedPkBitError:count 	0
attr interpolationmode  none
attr source  dropPkBitError
attr title  "packets dropped/bit error, count"
scalar scenarioPRJP1.node[6].lo0.lo 	droppedPkBitError:sum(packetBytes) 	0
attr interpolationmode  none
attr source  dropPkBitError
attr title  "packets dropped/bit error, sum(packetBytes)"
scalar scenarioPRJP1.node[6].lo0.lo 	rcvdPkFromHL:count 	532
attr interpolationmode  none
attr source  packetReceivedFromUpper
attr title  "packets received from higher layer, count"
scalar scenarioPRJP1.node[6].lo0.lo 	rcvdPkFromHL:sum(packetBytes) 	276640
attr interpolationmode  none
attr source  packetReceivedFromUpper
attr title  "packets received from higher layer, sum(packetBytes)"
scalar scenarioPRJP1.node[6].lo0.lo 	passedUpPk:count 	532
attr interpolationmode  none
attr source  packetSentToUpper
attr title  "packets passed to higher layer, count"
scalar scenarioPRJP1.node[6].lo0.lo 	passedUpPk:sum(packetBytes) 	276640
attr interpolationmode  none
attr source  packetSentToUpper
attr title  "packets passed to higher layer, sum(packetBytes)"
scalar scenarioPRJP1.node[2].app 	"Total sent" 	2607
scalar scenarioPRJP1.node[2].app 	"Total received" 	372
scalar scenarioPRJP1.node[2].app 	"Total deleted" 	14
scalar scenarioPRJP1.node[2].app 	dropPk:count 	14
attr interpolationmode  none
attr source  dropPk
attr title  "packets dropped, count"
scalar scenarioPRJP1.node[2].app 	dropPk:sum(packetBytes) 	7168
attr interpolationmode  none
attr source  dropPk
attr title  "packets dropped, sum(packetBytes)"
scalar scenarioPRJP1.node[2].app 	outOfOrderPk:count 	10
attr interpolationmode  none
attr source  outOfOrderPk
attr title  "packets received out of order, count"
scalar scenarioPRJP1.node[2].app 	outOfOrderPk:sum(packetBytes) 	5120
attr interpolationmode  none
attr source  outOfOrderPk
attr title  "packets received out of order, sum(packetBytes)"
scalar scenarioPRJP1.node[2].app 	rcvdPk:count 	372
attr interpolationmode  none
attr source  rcvdPk
attr title  "packets received, count"
scalar scenarioPRJP1.node[2].app 	rcvdPk:sum(packetBytes) 	190464
attr interpolationmode  none
attr source  rcvdPk
attr title  "packets received, sum(packetBytes)"
statistic scenarioPRJP1.node[2].app 	endToEndDelay:histogram
field count 372
field mean 1.6082765170513
field stddev 4.0468794612065
field sum 598.2788643431
field sqrsum 7038.1514297525
field min 0.000956549616
field max 19.595040150892
attr interpolationmode  none
attr source  messageAge(rcvdPk)
attr title  "delay, histogram"
attr unit  s
bin	-INF	0
bin	-9.796085251022	0
bin	-8.4898130109369	0
bin	-7.1835407708519	0
bin	-5.8772685307668	0
bin	-4.5709962906817	0
bin	-3.2647240505967	0
bin	-1.9584518105116	0
bin	-0.65217957042653	268
bin	0.65409266965853	51
bin	1.9603649097436	8
bin	3.2666371498287	7
bin	4.5729093899137	5
bin	5.8791816299988	2
bin	7.1854538700839	4
bin	8.4917261101689	2
bin	9.797998350254	3
bin	11.104270590339	4
bin	12.410542830424	1
bin	13.716815070509	3
bin	15.023087310594	2
bin	16.329359550679	3
bin	17.635631790764	6
bin	18.941904030849	3
bin	20.248176270935	0
bin	21.55444851102	0
bin	22.860720751105	0
bin	24.16699299119	0
bin	25.473265231275	0
bin	26.77953747136	0
bin	28.085809711445	0
bin	29.39208195153	0
scalar scenarioPRJP1.node[2].app 	sentPk:count 	2607
attr interpolationmode  none
attr source  sentPk
attr title  "packets sent, count"
scalar scenarioPRJP1.node[2].app 	sentPk:sum(packetBytes) 	1334784
attr interpolationmode  none
attr source  sentPk
attr title  "packets sent, sum(packetBytes)"
scalar scenarioPRJP1.node[2].udp 	droppedPkBadChecksum:count 	0
attr interpolationmode  none
attr title  "packets dropped (checksum error), count"
scalar scenarioPRJP1.node[2].udp 	droppedPkWrongPort:count 	0
attr interpolationmode  none
attr title  "packets dropped (wrong port), count"
scalar scenarioPRJP1.node[2].udp 	passedUpPk:count 	396
attr interpolationmode  none
attr title  "packets passed up, count"
scalar scenarioPRJP1.node[2].udp 	rcvdPk:count 	396
attr interpolationmode  none
attr source  rcvdPk
attr title  "packets received, count"
scalar scenarioPRJP1.node[2].udp 	rcvdPk:sum(packetBytes) 	205920
attr interpolationmode  none
attr source  rcvdPk
attr title  "packets received, sum(packetBytes)"
scalar scenarioPRJP1.node[2].udp 	sentPk:count 	2607
attr interpolationmode  none
attr source  sentPk
attr title  "packets sent, count"
scalar scenarioPRJP1.node[2].udp 	sentPk:sum(packetBytes) 	1355640
attr interpolationmode  none
attr source  sentPk
attr title  "packets sent, sum(packetBytes)"
scalar scenarioPRJP1.node[2].networkLayer.arp 	failedARPResolution:count 	76
attr title  "ARP failed resolutions, count"
scalar scenarioPRJP1.node[2].networkLayer.arp 	completedARPResolution:count 	209
attr title  "ARP completed resolutions, count"
scalar scenarioPRJP1.node[2].networkLayer.arp 	initiatedARPResolution:count 	98
attr title  "ARP initiated resolutions, count"
scalar scenarioPRJP1.node[2].networkLayer.arp 	sentReply:count 	14
attr title  "ARP replies sent, count"
scalar scenarioPRJP1.node[2].networkLayer.arp 	sentReq:count 	263
attr title  "ARP request sent, count"
scalar scenarioPRJP1.node[2].mobility 	startTime 	0.1
scalar scenarioPRJP1.node[2].mobility 	totalTime 	949.9
scalar scenarioPRJP1.node[2].mobility 	stopTime 	950
scalar scenarioPRJP1.node[2].mobility 	minSpeed 	2.4754233935409e-13
scalar scenarioPRJP1.node[2].mobility 	maxSpeed 	18.961955825268
scalar scenarioPRJP1.node[2].mobility 	totalDistance 	9294.7333276333
scalar scenarioPRJP1.node[2].mobility 	totalCO2Emission 	2617.2218909645
scalar scenarioPRJP1.node[2].wlan.mgmt 	dataQueueLen:max 	23
attr interpolationmode  sample-hold
attr title  "data queue length, max"
scalar scenarioPRJP1.node[2].wlan.mgmt 	dataQueueLen:timeavg 	0
attr interpolationmode  sample-hold
attr title  "data queue length, timeavg"
scalar scenarioPRJP1.node[2].wlan.mgmt 	dropPkByQueue:count 	0
attr interpolationmode  none
attr source  dropPkByQueue
attr title  "packets dropped by queue, count"
scalar scenarioPRJP1.node[2].wlan.mgmt 	dropPkByQueue:sum(packetBytes) 	0
attr interpolationmode  none
attr source  dropPkByQueue
attr title  "packets dropped by queue, sum(packetBytes)"
scalar scenarioPRJP1.node[2].wlan.mac 	"number of received packets" 	4483
scalar scenarioPRJP1.node[2].wlan.mac 	"number of collisions" 	3184
scalar scenarioPRJP1.node[2].wlan.mac 	"number of internal collisions" 	0
scalar scenarioPRJP1.node[2].wlan.mac 	"number of retry for AC 0" 	19003
scalar scenarioPRJP1.node[2].wlan.mac 	"number of retry for AC 1" 	0
scalar scenarioPRJP1.node[2].wlan.mac 	"number of retry for AC 2" 	0
scalar scenarioPRJP1.node[2].wlan.mac 	"number of retry for AC 3" 	0
scalar scenarioPRJP1.node[2].wlan.mac 	"sent and received bits" 	2893056
scalar scenarioPRJP1.node[2].wlan.mac 	"sent packet within AC 0" 	698
scalar scenarioPRJP1.node[2].wlan.mac 	"sent packet within AC 1" 	0
scalar scenarioPRJP1.node[2].wlan.mac 	"sent packet within AC 2" 	0
scalar scenarioPRJP1.node[2].wlan.mac 	"sent packet within AC 3" 	0
scalar scenarioPRJP1.node[2].wlan.mac 	"sent in TXOP " 	0
scalar scenarioPRJP1.node[2].wlan.mac 	"sentWithoutRetry AC 0" 	612
scalar scenarioPRJP1.node[2].wlan.mac 	"sentWithoutRetry AC 1" 	0
scalar scenarioPRJP1.node[2].wlan.mac 	"sentWithoutRetry AC 2" 	0
scalar scenarioPRJP1.node[2].wlan.mac 	"sentWithoutRetry AC 3" 	0
scalar scenarioPRJP1.node[2].wlan.mac 	"numGivenUp AC 0" 	3145
scalar scenarioPRJP1.node[2].wlan.mac 	"numGivenUp AC 1" 	0
scalar scenarioPRJP1.node[2].wlan.mac 	"numGivenUp AC 2" 	0
scalar scenarioPRJP1.node[2].wlan.mac 	"numGivenUp AC 3" 	0
scalar scenarioPRJP1.node[2].wlan.mac 	"numDropped AC 0" 	0
scalar scenarioPRJP1.node[2].wlan.mac 	"numDropped AC 1" 	0
scalar scenarioPRJP1.node[2].wlan.mac 	"numDropped AC 2" 	0
scalar scenarioPRJP1.node[2].wlan.mac 	"numDropped AC 3" 	0
scalar scenarioPRJP1.node[2].wlan.mac 	rcvdPkFromLL:count 	30076
attr interpolationmode  none
attr source  packetReceivedFromLower
attr title  "packets received from lower layer, count"
scalar scenarioPRJP1.node[2].wlan.mac 	rcvdPkFromLL:sum(packetBytes) 	8584170
attr interpolationmode  none
attr source  packetReceivedFromLower
attr title  "packets received from lower layer, sum(packetBytes)"
scalar scenarioPRJP1.node[2].wlan.mac 	sentDownPk:count 	29002
attr interpolationmode  none
attr source  packetSentToLower
attr title  "packets sent to lower layer, count"
scalar scenarioPRJP1.node[2].wlan.mac 	sentDownPk:sum(packetBytes) 	8162662
attr interpolationmode  none
attr source  packetSentToLower
attr title  "packets sent to lower layer, sum(packetBytes)"
scalar scenarioPRJP1.node[2].wlan.mac 	rcvdPkFromHL:count 	5516
attr interpolationmode  none
attr source  packetReceivedFromUpper
attr title  "packets received from higher layer, count"
scalar scenarioPRJP1.node[2].wlan.mac 	rcvdPkFromHL:sum(packetBytes) 	1458852
attr interpolationmode  none
attr source  packetReceivedFromUpper
attr title  "packets received from higher layer, sum(packetBytes)"
scalar scenarioPRJP1.node[2].wlan.mac 	passedUpPk:count 	3636
attr interpolationmode  none
attr source  packetSentToUpper
attr title  "packets passed to higher layer, count"
scalar scenarioPRJP1.node[2].wlan.mac 	passedUpPk:sum(packetBytes) 	846188
attr interpolationmode  none
attr source  packetSentToUpper
attr title  "packets passed to higher layer, sum(packetBytes)"
statistic scenarioPRJP1.node[2].wlan.radio 	radioChannel:histogram
field count 1
field mean 3
field stddev -nan
field sum 3
field sqrsum 9
field min 3
field max 3
attr interpolationmode  sample-hold
attr source  radioChannelChanged
attr title  "Radio channel, histogram"
bin	-INF	0
bin	2	0
bin	3	1
bin	4	0
scalar scenarioPRJP1.node[2].wlan.radio 	transmissionState:count 	116008
attr interpolationmode  sample-hold
attr source  transmissionStateChanged
attr title  "Radio transmission state, count"
scalar scenarioPRJP1.node[2].wlan.radio 	receptionState:count 	118828
attr interpolationmode  sample-hold
attr source  receptionStateChanged
attr title  "Radio reception state, count"
scalar scenarioPRJP1.node[2].wlan.radio 	radioMode:count 	58006
attr interpolationmode  sample-hold
attr source  radioModeChanged
attr title  "Radio mode, count"
statistic scenarioPRJP1.node[2].wlan.radio 	symbolErrorRate:histogram
field count 0
field mean -nan
field stddev -nan
field sum 0
field sqrsum 0
field min -nan
field max -nan
attr source  symbolErrorRate
attr title  "Symbol error rate, histogram"
bin	-INF	0
bin	-0.5	0
bin	-0.46666666666667	0
bin	-0.43333333333333	0
bin	-0.4	0
bin	-0.36666666666667	0
bin	-0.33333333333333	0
bin	-0.3	0
bin	-0.26666666666667	0
bin	-0.23333333333333	0
bin	-0.2	0
bin	-0.16666666666667	0
bin	-0.13333333333333	0
bin	-0.1	0
bin	-0.066666666666667	0
bin	-0.033333333333333	0
bin	0	0
bin	0.033333333333333	0
bin	0.066666666666667	0
bin	0.1	0
bin	0.13333333333333	0
bin	0.16666666666667	0
bin	0.2	0
bin	0.23333333333333	0
bin	0.26666666666667	0
bin	0.3	0
bin	0.33333333333333	0
bin	0.36666666666667	0
bin	0.4	0
bin	0.43333333333333	0
bin	0.46666666666667	0
bin	0.5	0
statistic scenarioPRJP1.node[2].wlan.radio 	bitErrorRate:histogram
field count 0
field mean -nan
field stddev -nan
field sum 0
field sqrsum 0
field min -nan
field max -nan
attr source  bitErrorRate
attr title  "Bit error rate, histogram"
bin	-INF	0
bin	-0.5	0
bin	-0.46666666666667	0
bin	-0.43333333333333	0
bin	-0.4	0
bin	-0.36666666666667	0
bin	-0.33333333333333	0
bin	-0.3	0
bin	-0.26666666666667	0
bin	-0.23333333333333	0
bin	-0.2	0
bin	-0.16666666666667	0
bin	-0.13333333333333	0
bin	-0.1	0
bin	-0.066666666666667	0
bin	-0.033333333333333	0
bin	0	0
bin	0.033333333333333	0
bin	0.066666666666667	0
bin	0.1	0
bin	0.13333333333333	0
bin	0.16666666666667	0
bin	0.2	0
bin	0.23333333333333	0
bin	0.26666666666667	0
bin	0.3	0
bin	0.33333333333333	0
bin	0.36666666666667	0
bin	0.4	0
bin	0.43333333333333	0
bin	0.46666666666667	0
bin	0.5	0
statistic scenarioPRJP1.node[2].wlan.radio 	packetErrorRate:histogram
field count 30076
field mean 0.10419127703533
field stddev 0.29917759245789
field sum 3133.6568481147
field sqrsum 3018.4297060497
field min 0
field max 1
attr source  packetErrorRate
attr title  "Packet error rate, histogram"
bin	-INF	0
bin	-4.4142528576874e-08	0
bin	-3.8256858099957e-08	0
bin	-3.2371187623041e-08	0
bin	-2.6485517146124e-08	0
bin	-2.0599846669208e-08	0
bin	-1.4714176192291e-08	0
bin	-8.8285057153747e-09	0
bin	-2.9428352384582e-09	24523
bin	2.9428352384582e-09	90
bin	8.8285057153747e-09	49
bin	1.4714176192291e-08	27
bin	2.0599846669208e-08	29
bin	2.6485517146124e-08	18
bin	3.2371187623041e-08	19
bin	3.8256858099957e-08	20
bin	4.4142528576874e-08	12
bin	5.002819905379e-08	6
bin	5.5913869530707e-08	8
bin	6.1799540007623e-08	8
bin	6.768521048454e-08	13
bin	7.3570880961456e-08	5
bin	7.9456551438373e-08	3
bin	8.5342221915289e-08	7
bin	9.1227892392206e-08	4
bin	9.7113562869122e-08	3
bin	1.0299923334604e-07	4
bin	1.0888490382296e-07	8
bin	1.1477057429987e-07	4
bin	1.2065624477679e-07	7
bin	1.265419152537e-07	8
bin	1.3242758573062e-07	5201
statistic scenarioPRJP1.node[2].wlan.radio 	minSNIR:histogram
field count 30076
field mean 5172.9919742778
field stddev 36581.105544202
field sum 155582906.61838
field sqrsum 41050510908565
field min 3.5982079948129e-05
field max 1348959.0218038
attr source  minSNIR
attr title  "Min SNIR, histogram"
bin	-INF	0
bin	-2258.7574867142	0
bin	-1957.0045038779	0
bin	-1655.2515210416	0
bin	-1353.4985382053	0
bin	-1051.745555369	0
bin	-749.99257253265	0
bin	-448.23958969633	0
bin	-146.48660686002	13409
bin	155.2663759763	9733
bin	457.01935881261	1801
bin	758.77234164893	709
bin	1060.5253244852	422
bin	1362.2783073216	299
bin	1664.0312901579	252
bin	1965.7842729942	196
bin	2267.5372558305	182
bin	2569.2902386668	141
bin	2871.0432215031	124
bin	3172.7962043395	104
bin	3474.5491871758	104
bin	3776.3021700121	79
bin	4078.0551528484	82
bin	4379.8081356847	81
bin	4681.561118521	74
bin	4983.3141013573	57
bin	5285.0670841937	46
bin	5586.82006703	63
bin	5888.5730498663	60
bin	6190.3260327026	50
bin	6492.0790155389	40
bin	6793.8319983752	1968
scalar scenarioPRJP1.node[2].lo0.lo 	droppedPkBitError:count 	0
attr interpolationmode  none
attr source  dropPkBitError
attr title  "packets dropped/bit error, count"
scalar scenarioPRJP1.node[2].lo0.lo 	droppedPkBitError:sum(packetBytes) 	0
attr interpolationmode  none
attr source  dropPkBitError
attr title  "packets dropped/bit error, sum(packetBytes)"
scalar scenarioPRJP1.node[2].lo0.lo 	rcvdPkFromHL:count 	396
attr interpolationmode  none
attr source  packetReceivedFromUpper
attr title  "packets received from higher layer, count"
scalar scenarioPRJP1.node[2].lo0.lo 	rcvdPkFromHL:sum(packetBytes) 	205920
attr interpolationmode  none
attr source  packetReceivedFromUpper
attr title  "packets received from higher layer, sum(packetBytes)"
scalar scenarioPRJP1.node[2].lo0.lo 	passedUpPk:count 	396
attr interpolationmode  none
attr source  packetSentToUpper
attr title  "packets passed to higher layer, count"
scalar scenarioPRJP1.node[2].lo0.lo 	passedUpPk:sum(packetBytes) 	205920
attr interpolationmode  none
attr source  packetSentToUpper
attr title  "packets passed to higher layer, sum(packetBytes)"
scalar scenarioPRJP1.node[7].app 	"Total sent" 	2618
scalar scenarioPRJP1.node[7].app 	"Total received" 	500
scalar scenarioPRJP1.node[7].app 	"Total deleted" 	27
scalar scenarioPRJP1.node[7].app 	dropPk:count 	27
attr interpolationmode  none
attr source  dropPk
attr title  "packets dropped, count"
scalar scenarioPRJP1.node[7].app 	dropPk:sum(packetBytes) 	13824
attr interpolationmode  none
attr source  dropPk
attr title  "packets dropped, sum(packetBytes)"
scalar scenarioPRJP1.node[7].app 	outOfOrderPk:count 	48
attr interpolationmode  none
attr source  outOfOrderPk
attr title  "packets received out of order, count"
scalar scenarioPRJP1.node[7].app 	outOfOrderPk:sum(packetBytes) 	24576
attr interpolationmode  none
attr source  outOfOrderPk
attr title  "packets received out of order, sum(packetBytes)"
scalar scenarioPRJP1.node[7].app 	rcvdPk:count 	500
attr interpolationmode  none
attr source  rcvdPk
attr title  "packets received, count"
scalar scenarioPRJP1.node[7].app 	rcvdPk:sum(packetBytes) 	256000
attr interpolationmode  none
attr source  rcvdPk
attr title  "packets received, sum(packetBytes)"
statistic scenarioPRJP1.node[7].app 	endToEndDelay:histogram
field count 500
field mean 1.0901293715129
field stddev 3.1591095813995
field sum 545.06468575643
field sqrsum 5574.1977236152
field min 0.000956625989
field max 19.412695718516
attr interpolationmode  none
attr source  messageAge(rcvdPk)
attr title  "delay, histogram"
attr unit  s
bin	-INF	0
bin	-7.911646171023	0
bin	-6.8566324647547	0
bin	-5.8016187584865	0
bin	-4.7466050522182	0
bin	-3.6915913459499	0
bin	-2.6365776396817	0
bin	-1.5815639334134	0
bin	-0.52655022714513	399
bin	0.52846347912313	42
bin	1.5834771853914	11
bin	2.6384908916597	4
bin	3.6935045979279	6
bin	4.7485183041962	4
bin	5.8035320104645	0
bin	6.8585457167327	6
bin	7.913559423001	2
bin	8.9685731292693	2
bin	10.023586835538	4
bin	11.078600541806	3
bin	12.133614248074	3
bin	13.188627954342	5
bin	14.243641660611	3
bin	15.298655366879	3
bin	16.353669073147	2
bin	17.408682779415	0
bin	18.463696485684	1
bin	19.518710191952	0
bin	20.57372389822	0
bin	21.628737604488	0
bin	22.683751310757	0
bin	23.738765017025	0
scalar scenarioPRJP1.node[7].app 	sentPk:count 	2618
attr interpolationmode  none
attr source  sentPk
attr title  "packets sent, count"
scalar scenarioPRJP1.node[7].app 	sentPk:sum(packetBytes) 	1340416
attr interpolationmode  none
attr source  sentPk
attr title  "packets sent, sum(packetBytes)"
scalar scenarioPRJP1.node[7].udp 	droppedPkBadChecksum:count 	0
attr interpolationmode  none
attr title  "packets dropped (checksum error), count"
scalar scenarioPRJP1.node[7].udp 	droppedPkWrongPort:count 	0
attr interpolationmode  none
attr title  "packets dropped (wrong port), count"
scalar scenarioPRJP1.node[7].udp 	passedUpPk:count 	575
attr interpolationmode  none
attr title  "packets passed up, count"
scalar scenarioPRJP1.node[7].udp 	rcvdPk:count 	575
attr interpolationmode  none
attr source  rcvdPk
attr title  "packets received, count"
scalar scenarioPRJP1.node[7].udp 	rcvdPk:sum(packetBytes) 	299000
attr interpolationmode  none
attr source  rcvdPk
attr title  "packets received, sum(packetBytes)"
scalar scenarioPRJP1.node[7].udp 	sentPk:count 	2618
attr interpolationmode  none
attr source  sentPk
attr title  "packets sent, count"
scalar scenarioPRJP1.node[7].udp 	sentPk:sum(packetBytes) 	1361360
attr interpolationmode  none
attr source  sentPk
attr title  "packets sent, sum(packetBytes)"
scalar scenarioPRJP1.node[7].networkLayer.arp 	failedARPResolution:count 	107
attr title  "ARP failed resolutions, count"
scalar scenarioPRJP1.node[7].networkLayer.arp 	completedARPResolution:count 	229
attr title  "ARP completed resolutions, count"
scalar scenarioPRJP1.node[7].networkLayer.arp 	initiatedARPResolution:count 	122
attr title  "ARP initiated resolutions, count"
scalar scenarioPRJP1.node[7].networkLayer.arp 	sentReply:count 	18
attr title  "ARP replies sent, count"
scalar scenarioPRJP1.node[7].networkLayer.arp 	sentReq:count 	350
attr title  "ARP request sent, count"
scalar scenarioPRJP1.node[7].mobility 	startTime 	2.5
scalar scenarioPRJP1.node[7].mobility 	totalTime 	947.5
scalar scenarioPRJP1.node[7].mobility 	stopTime 	950
scalar scenarioPRJP1.node[7].mobility 	minSpeed 	2.4754236735877e-13
scalar scenarioPRJP1.node[7].mobility 	maxSpeed 	16.438728223941
scalar scenarioPRJP1.node[7].mobility 	totalDistance 	9368.3191209207
scalar scenarioPRJP1.node[7].mobility 	totalCO2Emission 	2381.4121857328
scalar scenarioPRJP1.node[7].wlan.mgmt 	dataQueueLen:max 	14
attr interpolationmode  sample-hold
attr title  "data queue length, max"
scalar scenarioPRJP1.node[7].wlan.mgmt 	dataQueueLen:timeavg 	0
attr interpolationmode  sample-hold
attr title  "data queue length, timeavg"
scalar scenarioPRJP1.node[7].wlan.mgmt 	dropPkByQueue:count 	0
attr interpolationmode  none
attr source  dropPkByQueue
attr title  "packets dropped by queue, count"
scalar scenarioPRJP1.node[7].wlan.mgmt 	dropPkByQueue:sum(packetBytes) 	0
attr interpolationmode  none
attr source  dropPkByQueue
attr title  "packets dropped by queue, sum(packetBytes)"
scalar scenarioPRJP1.node[7].wlan.mac 	"number of received packets" 	5525
scalar scenarioPRJP1.node[7].wlan.mac 	"number of collisions" 	3119
scalar scenarioPRJP1.node[7].wlan.mac 	"number of internal collisions" 	0
scalar scenarioPRJP1.node[7].wlan.mac 	"number of retry for AC 0" 	25000
scalar scenarioPRJP1.node[7].wlan.mac 	"number of retry for AC 1" 	0
scalar scenarioPRJP1.node[7].wlan.mac 	"number of retry for AC 2" 	0
scalar scenarioPRJP1.node[7].wlan.mac 	"number of retry for AC 3" 	0
scalar scenarioPRJP1.node[7].wlan.mac 	"sent and received bits" 	3824128
scalar scenarioPRJP1.node[7].wlan.mac 	"sent packet within AC 0" 	950
scalar scenarioPRJP1.node[7].wlan.mac 	"sent packet within AC 1" 	0
scalar scenarioPRJP1.node[7].wlan.mac 	"sent packet within AC 2" 	0
scalar scenarioPRJP1.node[7].wlan.mac 	"sent packet within AC 3" 	0
scalar scenarioPRJP1.node[7].wlan.mac 	"sent in TXOP " 	0
scalar scenarioPRJP1.node[7].wlan.mac 	"sentWithoutRetry AC 0" 	887
scalar scenarioPRJP1.node[7].wlan.mac 	"sentWithoutRetry AC 1" 	0
scalar scenarioPRJP1.node[7].wlan.mac 	"sentWithoutRetry AC 2" 	0
scalar scenarioPRJP1.node[7].wlan.mac 	"sentWithoutRetry AC 3" 	0
scalar scenarioPRJP1.node[7].wlan.mac 	"numGivenUp AC 0" 	4149
scalar scenarioPRJP1.node[7].wlan.mac 	"numGivenUp AC 1" 	0
scalar scenarioPRJP1.node[7].wlan.mac 	"numGivenUp AC 2" 	0
scalar scenarioPRJP1.node[7].wlan.mac 	"numGivenUp AC 3" 	0
scalar scenarioPRJP1.node[7].wlan.mac 	"numDropped AC 0" 	0
scalar scenarioPRJP1.node[7].wlan.mac 	"numDropped AC 1" 	0
scalar scenarioPRJP1.node[7].wlan.mac 	"numDropped AC 2" 	0
scalar scenarioPRJP1.node[7].wlan.mac 	"numDropped AC 3" 	0
scalar scenarioPRJP1.node[7].wlan.mac 	rcvdPkFromLL:count 	36666
attr interpolationmode  none
attr source  packetReceivedFromLower
attr title  "packets received from lower layer, count"
scalar scenarioPRJP1.node[7].wlan.mac 	rcvdPkFromLL:sum(packetBytes) 	10164128
attr interpolationmode  none
attr source  packetReceivedFromLower
attr title  "packets received from lower layer, sum(packetBytes)"
scalar scenarioPRJP1.node[7].wlan.mac 	sentDownPk:count 	37590
attr interpolationmode  none
attr source  packetSentToLower
attr title  "packets sent to lower layer, count"
scalar scenarioPRJP1.node[7].wlan.mac 	sentDownPk:sum(packetBytes) 	10719778
attr interpolationmode  none
attr source  packetSentToLower
attr title  "packets sent to lower layer, sum(packetBytes)"
scalar scenarioPRJP1.node[7].wlan.mac 	rcvdPkFromHL:count 	7065
attr interpolationmode  none
attr source  packetReceivedFromUpper
attr title  "packets received from higher layer, count"
scalar scenarioPRJP1.node[7].wlan.mac 	rcvdPkFromHL:sum(packetBytes) 	1923020
attr interpolationmode  none
attr source  packetReceivedFromUpper
attr title  "packets received from higher layer, sum(packetBytes)"
scalar scenarioPRJP1.node[7].wlan.mac 	passedUpPk:count 	5011
attr interpolationmode  none
attr source  packetSentToUpper
attr title  "packets passed to higher layer, count"
scalar scenarioPRJP1.node[7].wlan.mac 	passedUpPk:sum(packetBytes) 	1210300
attr interpolationmode  none
attr source  packetSentToUpper
attr title  "packets passed to higher layer, sum(packetBytes)"
statistic scenarioPRJP1.node[7].wlan.radio 	radioChannel:histogram
field count 1
field mean 3
field stddev -nan
field sum 3
field sqrsum 9
field min 3
field max 3
attr interpolationmode  sample-hold
attr source  radioChannelChanged
[...]
attr interpolationmode  none
attr source  packetReceivedFromUpper
attr title  "packets received from higher layer, sum(packetBytes)"
scalar scenarioPRJP1.node[4].wlan.mac 	passedUpPk:count 	3783
attr interpolationmode  none
attr source  packetSentToUpper
attr title  "packets passed to higher layer, count"
scalar scenarioPRJP1.node[4].wlan.mac 	passedUpPk:sum(packetBytes) 	813768
attr interpolationmode  none
attr source  packetSentToUpper
attr title  "packets passed to higher layer, sum(packetBytes)"
statistic scenarioPRJP1.node[4].wlan.radio 	radioChannel:histogram
field count 1
field mean 3
field stddev -nan
field sum 3
field sqrsum 9
field min 3
field max 3
attr interpolationmode  sample-hold
attr source  radioChannelChanged
attr title  "Radio channel, histogram"
bin	-INF	0
bin	2	0
bin	3	1
bin	4	0
scalar scenarioPRJP1.node[4].wlan.radio 	transmissionState:count 	88160
attr interpolationmode  sample-hold
attr source  transmissionStateChanged
attr title  "Radio transmission state, count"
scalar scenarioPRJP1.node[4].wlan.radio 	receptionState:count 	112137
attr interpolationmode  sample-hold
attr source  receptionStateChanged
attr title  "Radio reception state, count"
scalar scenarioPRJP1.node[4].wlan.radio 	radioMode:count 	44082
attr interpolationmode  sample-hold
attr source  radioModeChanged
attr title  "Radio mode, count"
statistic scenarioPRJP1.node[4].wlan.radio 	symbolErrorRate:histogram
field count 0
field mean -nan
field stddev -nan
field sum 0
field sqrsum 0
field min -nan
field max -nan
attr source  symbolErrorRate
attr title  "Symbol error rate, histogram"
bin	-INF	0
bin	-0.5	0
bin	-0.46666666666667	0
bin	-0.43333333333333	0
bin	-0.4	0
bin	-0.36666666666667	0
bin	-0.33333333333333	0
bin	-0.3	0
bin	-0.26666666666667	0
bin	-0.23333333333333	0
bin	-0.2	0
bin	-0.16666666666667	0
bin	-0.13333333333333	0
bin	-0.1	0
bin	-0.066666666666667	0
bin	-0.033333333333333	0
bin	0	0
bin	0.033333333333333	0
bin	0.066666666666667	0
bin	0.1	0
bin	0.13333333333333	0
bin	0.16666666666667	0
bin	0.2	0
bin	0.23333333333333	0
bin	0.26666666666667	0
bin	0.3	0
bin	0.33333333333333	0
bin	0.36666666666667	0
bin	0.4	0
bin	0.43333333333333	0
bin	0.46666666666667	0
bin	0.5	0
statistic scenarioPRJP1.node[4].wlan.radio 	bitErrorRate:histogram
field count 0
field mean -nan
field stddev -nan
field sum 0
field sqrsum 0
field min -nan
field max -nan
attr source  bitErrorRate
attr title  "Bit error rate, histogram"
bin	-INF	0
bin	-0.5	0
bin	-0.46666666666667	0
bin	-0.43333333333333	0
bin	-0.4	0
bin	-0.36666666666667	0
bin	-0.33333333333333	0
bin	-0.3	0
bin	-0.26666666666667	0
bin	-0.23333333333333	0
bin	-0.2	0
bin	-0.16666666666667	0
bin	-0.13333333333333	0
bin	-0.1	0
bin	-0.066666666666667	0
bin	-0.033333333333333	0
bin	0	0
bin	0.033333333333333	0
bin	0.066666666666667	0
bin	0.1	0
bin	0.13333333333333	0
bin	0.16666666666667	0
bin	0.2	0
bin	0.23333333333333	0
bin	0.26666666666667	0
bin	0.3	0
bin	0.33333333333333	0
bin	0.36666666666667	0
bin	0.4	0
bin	0.43333333333333	0
bin	0.46666666666667	0
bin	0.5	0
statistic scenarioPRJP1.node[4].wlan.radio 	packetErrorRate:histogram
field count 33706
field mean 0.074725984257914
field stddev 0.2572831341733
field sum 2518.7140253972
field sqrsum 2419.30275275
field min 0
field max 1
attr source  packetErrorRate
attr title  "Packet error rate, histogram"
bin	-INF	0
bin	-0.5	0
bin	-0.46666666666667	0
bin	-0.43333333333333	0
bin	-0.4	0
bin	-0.36666666666667	0
bin	-0.33333333333333	0
bin	-0.3	0
bin	-0.26666666666667	0
bin	-0.23333333333333	0
bin	-0.2	0
bin	-0.16666666666667	0
bin	-0.13333333333333	0
bin	-0.1	0
bin	-0.066666666666667	0
bin	-0.033333333333333	0
bin	0	30787
bin	0.033333333333333	101
bin	0.066666666666667	58
bin	0.1	44
bin	0.13333333333333	36
bin	0.16666666666667	18
bin	0.2	30
bin	0.23333333333333	25
bin	0.26666666666667	22
bin	0.3	17
bin	0.33333333333333	19
bin	0.36666666666667	20
bin	0.4	16
bin	0.43333333333333	14
bin	0.46666666666667	12
bin	0.5	2487
statistic scenarioPRJP1.node[4].wlan.radio 	minSNIR:histogram
field count 33706
field mean 24698.748383192
field stddev 90686.162971188
field sum 832496013.00386
field sqrsum 2.9775086066048e+14
field min 0.00012310316205733
field max 1597172.3750441
attr source  minSNIR
attr title  "Min SNIR, histogram"
bin	-INF	0
bin	-21855.86731954	0
bin	-18936.686268629	0
bin	-16017.505217717	0
bin	-13098.324166806	0
bin	-10179.143115895	0
bin	-7259.9620649833	0
bin	-4340.7810140719	0
bin	-1421.5999631606	24616
bin	1497.5810877507	2567
bin	4416.762138662	931
bin	7335.9431895733	560
bin	10255.124240485	332
bin	13174.305291396	262
bin	16093.486342307	175
bin	19012.667393219	140
bin	21931.84844413	130
bin	24851.029495041	114
bin	27770.210545953	73
bin	30689.391596864	71
bin	33608.572647775	66
bin	36527.753698687	67
bin	39446.934749598	69
bin	42366.115800509	61
bin	45285.296851421	50
bin	48204.477902332	58
bin	51123.658953243	45
bin	54042.840004154	55
bin	56962.021055066	45
bin	59881.202105977	48
bin	62800.383156888	39
bin	65719.5642078	3132
scalar scenarioPRJP1.node[4].lo0.lo 	droppedPkBitError:count 	0
attr interpolationmode  none
attr source  dropPkBitError
attr title  "packets dropped/bit error, count"
scalar scenarioPRJP1.node[4].lo0.lo 	droppedPkBitError:sum(packetBytes) 	0
attr interpolationmode  none
attr source  dropPkBitError
attr title  "packets dropped/bit error, sum(packetBytes)"
scalar scenarioPRJP1.node[4].lo0.lo 	rcvdPkFromHL:count 	439
attr interpolationmode  none
attr source  packetReceivedFromUpper
attr title  "packets received from higher layer, count"
scalar scenarioPRJP1.node[4].lo0.lo 	rcvdPkFromHL:sum(packetBytes) 	228280
attr interpolationmode  none
attr source  packetReceivedFromUpper
attr title  "packets received from higher layer, sum(packetBytes)"
scalar scenarioPRJP1.node[4].lo0.lo 	passedUpPk:count 	439
attr interpolationmode  none
attr source  packetSentToUpper
attr title  "packets passed to higher layer, count"
scalar scenarioPRJP1.node[4].lo0.lo 	passedUpPk:sum(packetBytes) 	228280
attr interpolationmode  none
attr source  packetSentToUpper
attr title  "packets passed to higher layer, sum(packetBytes)"
scalar scenarioPRJP1.node[9].app 	"Total sent" 	2609
scalar scenarioPRJP1.node[9].app 	"Total received" 	389
scalar scenarioPRJP1.node[9].app 	"Total deleted" 	16
scalar scenarioPRJP1.node[9].app 	dropPk:count 	16
attr interpolationmode  none
attr source  dropPk
attr title  "packets dropped, count"
scalar scenarioPRJP1.node[9].app 	dropPk:sum(packetBytes) 	8192
attr interpolationmode  none
attr source  dropPk
attr title  "packets dropped, sum(packetBytes)"
scalar scenarioPRJP1.node[9].app 	outOfOrderPk:count 	33
attr interpolationmode  none
attr source  outOfOrderPk
attr title  "packets received out of order, count"
scalar scenarioPRJP1.node[9].app 	outOfOrderPk:sum(packetBytes) 	16896
attr interpolationmode  none
attr source  outOfOrderPk
attr title  "packets received out of order, sum(packetBytes)"
scalar scenarioPRJP1.node[9].app 	rcvdPk:count 	389
attr interpolationmode  none
attr source  rcvdPk
attr title  "packets received, count"
scalar scenarioPRJP1.node[9].app 	rcvdPk:sum(packetBytes) 	199168
attr interpolationmode  none
attr source  rcvdPk
attr title  "packets received, sum(packetBytes)"
statistic scenarioPRJP1.node[9].app 	endToEndDelay:histogram
field count 389
field mean 1.5347892058088
field stddev 3.996612000168
field sum 597.03300105963
field sqrsum 7113.8079077341
field min 0.000956525388
field max 19.821795966018
attr interpolationmode  none
attr source  messageAge(rcvdPk)
attr title  "delay, histogram"
attr unit  s
bin	-INF	0
bin	-8.548826147081	0
bin	-7.4088541130234	0
bin	-6.2688820789658	0
bin	-5.1289100449082	0
bin	-3.9889380108506	0
bin	-2.848965976793	0
bin	-1.7089939427354	0
bin	-0.5690219086778	293
bin	0.5709501253798	36
bin	1.7109221594374	13
bin	2.850894193495	6
bin	3.9908662275526	5
bin	5.1308382616102	3
bin	6.2708102956678	0
bin	7.4107823297254	6
bin	8.550754363783	2
bin	9.6907263978406	1
bin	10.830698431898	1
bin	11.970670465956	5
bin	13.110642500013	2
bin	14.250614534071	0
bin	15.390586568129	7
bin	16.530558602186	3
bin	17.670530636244	2
bin	18.810502670301	4
bin	19.950474704359	0
bin	21.090446738417	0
bin	22.230418772474	0
bin	23.370390806532	0
bin	24.510362840589	0
bin	25.650334874647	0
scalar scenarioPRJP1.node[9].app 	sentPk:count 	2609
attr interpolationmode  none
attr source  sentPk
attr title  "packets sent, count"
scalar scenarioPRJP1.node[9].app 	sentPk:sum(packetBytes) 	1335808
attr interpolationmode  none
attr source  sentPk
attr title  "packets sent, sum(packetBytes)"
scalar scenarioPRJP1.node[9].udp 	droppedPkBadChecksum:count 	0
attr interpolationmode  none
attr title  "packets dropped (checksum error), count"
scalar scenarioPRJP1.node[9].udp 	droppedPkWrongPort:count 	0
attr interpolationmode  none
attr title  "packets dropped (wrong port), count"
scalar scenarioPRJP1.node[9].udp 	passedUpPk:count 	438
attr interpolationmode  none
attr title  "packets passed up, count"
scalar scenarioPRJP1.node[9].udp 	rcvdPk:count 	438
attr interpolationmode  none
attr source  rcvdPk
attr title  "packets received, count"
scalar scenarioPRJP1.node[9].udp 	rcvdPk:sum(packetBytes) 	227760
attr interpolationmode  none
attr source  rcvdPk
attr title  "packets received, sum(packetBytes)"
scalar scenarioPRJP1.node[9].udp 	sentPk:count 	2609
attr interpolationmode  none
attr source  sentPk
attr title  "packets sent, count"
scalar scenarioPRJP1.node[9].udp 	sentPk:sum(packetBytes) 	1356680
attr interpolationmode  none
attr source  sentPk
attr title  "packets sent, sum(packetBytes)"
scalar scenarioPRJP1.node[9].networkLayer.arp 	failedARPResolution:count 	74
attr title  "ARP failed resolutions, count"
scalar scenarioPRJP1.node[9].networkLayer.arp 	completedARPResolution:count 	174
attr title  "ARP completed resolutions, count"
scalar scenarioPRJP1.node[9].networkLayer.arp 	initiatedARPResolution:count 	95
attr title  "ARP initiated resolutions, count"
scalar scenarioPRJP1.node[9].networkLayer.arp 	sentReply:count 	22
attr title  "ARP replies sent, count"
scalar scenarioPRJP1.node[9].networkLayer.arp 	sentReq:count 	261
attr title  "ARP request sent, count"
scalar scenarioPRJP1.node[9].mobility 	startTime 	2.5
scalar scenarioPRJP1.node[9].mobility 	totalTime 	947.5
scalar scenarioPRJP1.node[9].mobility 	stopTime 	950
scalar scenarioPRJP1.node[9].mobility 	minSpeed 	2.4755380258322e-13
scalar scenarioPRJP1.node[9].mobility 	maxSpeed 	19.702875523036
scalar scenarioPRJP1.node[9].mobility 	totalDistance 	9723.3397143367
scalar scenarioPRJP1.node[9].mobility 	totalCO2Emission 	2554.0673896062
scalar scenarioPRJP1.node[9].wlan.mgmt 	dataQueueLen:max 	9
attr interpolationmode  sample-hold
attr title  "data queue length, max"
scalar scenarioPRJP1.node[9].wlan.mgmt 	dataQueueLen:timeavg 	0
attr interpolationmode  sample-hold
attr title  "data queue length, timeavg"
scalar scenarioPRJP1.node[9].wlan.mgmt 	dropPkByQueue:count 	0
attr interpolationmode  none
attr source  dropPkByQueue
attr title  "packets dropped by queue, count"
scalar scenarioPRJP1.node[9].wlan.mgmt 	dropPkByQueue:sum(packetBytes) 	0
attr interpolationmode  none
attr source  dropPkByQueue
attr title  "packets dropped by queue, sum(packetBytes)"
scalar scenarioPRJP1.node[9].wlan.mac 	"number of received packets" 	5067
scalar scenarioPRJP1.node[9].wlan.mac 	"number of collisions" 	2542
scalar scenarioPRJP1.node[9].wlan.mac 	"number of internal collisions" 	0
scalar scenarioPRJP1.node[9].wlan.mac 	"number of retry for AC 0" 	24870
scalar scenarioPRJP1.node[9].wlan.mac 	"number of retry for AC 1" 	0
scalar scenarioPRJP1.node[9].wlan.mac 	"number of retry for AC 2" 	0
scalar scenarioPRJP1.node[9].wlan.mac 	"number of retry for AC 3" 	0
scalar scenarioPRJP1.node[9].wlan.mac 	"sent and received bits" 	2355296
scalar scenarioPRJP1.node[9].wlan.mac 	"sent packet within AC 0" 	497
scalar scenarioPRJP1.node[9].wlan.mac 	"sent packet within AC 1" 	0
scalar scenarioPRJP1.node[9].wlan.mac 	"sent packet within AC 2" 	0
scalar scenarioPRJP1.node[9].wlan.mac 	"sent packet within AC 3" 	0
scalar scenarioPRJP1.node[9].wlan.mac 	"sent in TXOP " 	0
scalar scenarioPRJP1.node[9].wlan.mac 	"sentWithoutRetry AC 0" 	460
scalar scenarioPRJP1.node[9].wlan.mac 	"sentWithoutRetry AC 1" 	0
scalar scenarioPRJP1.node[9].wlan.mac 	"sentWithoutRetry AC 2" 	0
scalar scenarioPRJP1.node[9].wlan.mac 	"sentWithoutRetry AC 3" 	0
scalar scenarioPRJP1.node[9].wlan.mac 	"numGivenUp AC 0" 	4136
scalar scenarioPRJP1.node[9].wlan.mac 	"numGivenUp AC 1" 	0
scalar scenarioPRJP1.node[9].wlan.mac 	"numGivenUp AC 2" 	0
scalar scenarioPRJP1.node[9].wlan.mac 	"numGivenUp AC 3" 	0
scalar scenarioPRJP1.node[9].wlan.mac 	"numDropped AC 0" 	0
scalar scenarioPRJP1.node[9].wlan.mac 	"numDropped AC 1" 	0
scalar scenarioPRJP1.node[9].wlan.mac 	"numDropped AC 2" 	0
scalar scenarioPRJP1.node[9].wlan.mac 	"numDropped AC 3" 	0
scalar scenarioPRJP1.node[9].wlan.mac 	rcvdPkFromLL:count 	26631
attr interpolationmode  none
attr source  packetReceivedFromLower
attr title  "packets received from lower layer, count"
scalar scenarioPRJP1.node[9].wlan.mac 	rcvdPkFromLL:sum(packetBytes) 	7324428
attr interpolationmode  none
attr source  packetReceivedFromLower
attr title  "packets received from lower layer, sum(packetBytes)"
scalar scenarioPRJP1.node[9].wlan.mac 	sentDownPk:count 	36366
attr interpolationmode  none
attr source  packetSentToLower
attr title  "packets sent to lower layer, count"
scalar scenarioPRJP1.node[9].wlan.mac 	sentDownPk:sum(packetBytes) 	10607138
attr interpolationmode  none
attr source  packetSentToLower
attr title  "packets sent to lower layer, sum(packetBytes)"
scalar scenarioPRJP1.node[9].wlan.mac 	rcvdPkFromHL:count 	6429
attr interpolationmode  none
attr source  packetReceivedFromUpper
attr title  "packets received from higher layer, count"
scalar scenarioPRJP1.node[9].wlan.mac 	rcvdPkFromHL:sum(packetBytes) 	1754368
attr interpolationmode  none
attr source  packetReceivedFromUpper
attr title  "packets received from higher layer, sum(packetBytes)"
scalar scenarioPRJP1.node[9].wlan.mac 	passedUpPk:count 	4169
attr interpolationmode  none
attr source  packetSentToUpper
attr title  "packets passed to higher layer, count"
scalar scenarioPRJP1.node[9].wlan.mac 	passedUpPk:sum(packetBytes) 	1023548
attr interpolationmode  none
attr source  packetSentToUpper
attr title  "packets passed to higher layer, sum(packetBytes)"
statistic scenarioPRJP1.node[9].wlan.radio 	radioChannel:histogram
field count 1
field mean 3
field stddev -nan
field sum 3
field sqrsum 9
field min 3
field max 3
attr interpolationmode  sample-hold
attr source  radioChannelChanged
attr title  "Radio channel, histogram"
bin	-INF	0
bin	2	0
bin	3	1
bin	4	0
scalar scenarioPRJP1.node[9].wlan.radio 	transmissionState:count 	145464
attr interpolationmode  sample-hold
attr source  transmissionStateChanged
attr title  "Radio transmission state, count"
scalar scenarioPRJP1.node[9].wlan.radio 	receptionState:count 	126394
attr interpolationmode  sample-hold
attr source  receptionStateChanged
attr title  "Radio reception state, count"
scalar scenarioPRJP1.node[9].wlan.radio 	radioMode:count 	72734
attr interpolationmode  sample-hold
attr source  radioModeChanged
attr title  "Radio mode, count"
statistic scenarioPRJP1.node[9].wlan.radio 	symbolErrorRate:histogram
field count 0
field mean -nan
field stddev -nan
field sum 0
field sqrsum 0
field min -nan
field max -nan
attr source  symbolErrorRate
attr title  "Symbol error rate, histogram"
bin	-INF	0
bin	-0.5	0
bin	-0.46666666666667	0
bin	-0.43333333333333	0
bin	-0.4	0
bin	-0.36666666666667	0
bin	-0.33333333333333	0
bin	-0.3	0
bin	-0.26666666666667	0
bin	-0.23333333333333	0
bin	-0.2	0
bin	-0.16666666666667	0
bin	-0.13333333333333	0
bin	-0.1	0
bin	-0.066666666666667	0
bin	-0.033333333333333	0
bin	0	0
bin	0.033333333333333	0
bin	0.066666666666667	0
bin	0.1	0
bin	0.13333333333333	0
bin	0.16666666666667	0
bin	0.2	0
bin	0.23333333333333	0
bin	0.26666666666667	0
bin	0.3	0
bin	0.33333333333333	0
bin	0.36666666666667	0
bin	0.4	0
bin	0.43333333333333	0
bin	0.46666666666667	0
bin	0.5	0
statistic scenarioPRJP1.node[9].wlan.radio 	bitErrorRate:histogram
field count 0
field mean -nan
field stddev -nan
field sum 0
field sqrsum 0
field min -nan
field max -nan
attr source  bitErrorRate
attr title  "Bit error rate, histogram"
bin	-INF	0
bin	-0.5	0
bin	-0.46666666666667	0
bin	-0.43333333333333	0
bin	-0.4	0
bin	-0.36666666666667	0
bin	-0.33333333333333	0
bin	-0.3	0
bin	-0.26666666666667	0
bin	-0.23333333333333	0
bin	-0.2	0
bin	-0.16666666666667	0
bin	-0.13333333333333	0
bin	-0.1	0
bin	-0.066666666666667	0
bin	-0.033333333333333	0
bin	0	0
bin	0.033333333333333	0
bin	0.066666666666667	0
bin	0.1	0
bin	0.13333333333333	0
bin	0.16666666666667	0
bin	0.2	0
bin	0.23333333333333	0
bin	0.26666666666667	0
bin	0.3	0
bin	0.33333333333333	0
bin	0.36666666666667	0
bin	0.4	0
bin	0.43333333333333	0
bin	0.46666666666667	0
bin	0.5	0
statistic scenarioPRJP1.node[9].wlan.radio 	packetErrorRate:histogram
field count 26631
field mean 0.092922611176394
field stddev 0.28369780054711
field sum 2474.6220582385
field sqrsum 2373.2490347254
field min 0
field max 1
attr source  packetErrorRate
attr title  "Packet error rate, histogram"
bin	-INF	0
bin	-0.5	0
bin	-0.46666666666667	0
bin	-0.43333333333333	0
bin	-0.4	0
bin	-0.36666666666667	0
bin	-0.33333333333333	0
bin	-0.3	0
bin	-0.26666666666667	0
bin	-0.23333333333333	0
bin	-0.2	0
bin	-0.16666666666667	0
bin	-0.13333333333333	0
bin	-0.1	0
bin	-0.066666666666667	0
bin	-0.033333333333333	0
bin	0	23744
bin	0.033333333333333	103
bin	0.066666666666667	57
bin	0.1	53
bin	0.13333333333333	35
bin	0.16666666666667	31
bin	0.2	25
bin	0.23333333333333	21
bin	0.26666666666667	14
bin	0.3	27
bin	0.33333333333333	12
bin	0.36666666666667	24
bin	0.4	17
bin	0.43333333333333	15
bin	0.46666666666667	10
bin	0.5	2443
statistic scenarioPRJP1.node[9].wlan.radio 	minSNIR:histogram
field count 26631
field mean 4668.7340291785
field stddev 34019.438793331
field sum 124333055.93105
field sqrsum 31399968576282
field min 0.00013968863156266
field max 1454040.1787006
attr source  minSNIR
attr title  "Min SNIR, histogram"
bin	-INF	0
bin	-25179.898198562	0
bin	-21820.532391398	0
bin	-18461.166584234	0
bin	-15101.80077707	0
bin	-11742.434969905	0
bin	-8383.0691627413	0
bin	-5023.7033555772	0
bin	-1664.3375484131	23621
bin	1695.028258751	993
bin	5054.3940659151	445
bin	8413.7598730792	271
bin	11773.125680243	195
bin	15132.491487407	148
bin	18491.857294572	89
bin	21851.223101736	88
bin	25210.5889089	54
bin	28569.954716064	57
bin	31929.320523228	52
bin	35288.686330392	35
bin	38648.052137556	44
bin	42007.41794472	25
bin	45366.783751884	26
bin	48726.149559048	27
bin	52085.515366213	19
bin	55444.881173377	23
bin	58804.246980541	22
bin	62163.612787705	10
bin	65522.978594869	11
bin	68882.344402033	9
bin	72241.710209197	8
bin	75601.076016361	359
scalar scenarioPRJP1.node[9].lo0.lo 	droppedPkBitError:count 	0
attr interpolationmode  none
attr source  dropPkBitError
attr title  "packets dropped/bit error, count"
scalar scenarioPRJP1.node[9].lo0.lo 	droppedPkBitError:sum(packetBytes) 	0
attr interpolationmode  none
attr source  dropPkBitError
attr title  "packets dropped/bit error, sum(packetBytes)"
scalar scenarioPRJP1.node[9].lo0.lo 	rcvdPkFromHL:count 	438
attr interpolationmode  none
attr source  packetReceivedFromUpper
attr title  "packets received from higher layer, count"
scalar scenarioPRJP1.node[9].lo0.lo 	rcvdPkFromHL:sum(packetBytes) 	227760
attr interpolationmode  none
attr source  packetReceivedFromUpper
attr title  "packets received from higher layer, sum(packetBytes)"
scalar scenarioPRJP1.node[9].lo0.lo 	passedUpPk:count 	438
attr interpolationmode  none
attr source  packetSentToUpper
attr title  "packets passed to higher layer, count"
scalar scenarioPRJP1.node[9].lo0.lo 	passedUpPk:sum(packetBytes) 	227760
attr interpolationmode  none
attr source  packetSentToUpper
attr title  "packets passed to higher layer, sum(packetBytes)"
