version 2
run DSRUU-LNS-25n-18-20150724-13:49:31-7948
attr configname DSRUU-LNS-25n
attr datetime 20150724-13:49:31
attr experiment DSRUU-LNS-25n
attr inifile omnetpp.ini
attr iterationvars ""
attr iterationvars2 $repetition=18
attr measurement ""
attr network Prj_Part1_propag.scenarioPRJP1
attr processid 7948
attr repetition 18
attr replication #18
attr resultdir results
attr runnumber 18
attr seedset 18

scalar scenarioPRJP1.radioMedium.propagation 	"Arrival computation count" 	52692936
scalar scenarioPRJP1.radioMedium 	"transmission count" 	2195539
scalar scenarioPRJP1.radioMedium 	"radio frame send count" 	52692936
scalar scenarioPRJP1.radioMedium 	"reception computation count" 	51951853
scalar scenarioPRJP1.radioMedium 	"interference computation count" 	142476648
scalar scenarioPRJP1.radioMedium 	"reception decision computation count" 	4779273
scalar scenarioPRJP1.radioMedium 	"listening decision computation count" 	87726173
scalar scenarioPRJP1.radioMedium 	"reception cache hit" 	83.058580484773
attr unit  %
scalar scenarioPRJP1.radioMedium 	"interference cache hit" 	50
attr unit  %
scalar scenarioPRJP1.radioMedium 	"noise cache hit" 	0
attr unit  %
scalar scenarioPRJP1.radioMedium 	"snir cache hit" 	0
attr unit  %
scalar scenarioPRJP1.radioMedium 	"reception decision cache hit" 	0
attr unit  %
scalar scenarioPRJP1.node[0].app 	"Total sent" 	2611
scalar scenarioPRJP1.node[0].app 	"Total received" 	294
scalar scenarioPRJP1.node[0].app 	"Total deleted" 	2
scalar scenarioPRJP1.node[0].app 	dropPk:count 	2
attr interpolationmode  none
attr source  dropPk
attr title  "packets dropped, count"
scalar scenarioPRJP1.node[0].app 	dropPk:sum(packetBytes) 	1024
attr interpolationmode  none
attr source  dropPk
attr title  "packets dropped, sum(packetBytes)"
scalar scenarioPRJP1.node[0].app 	outOfOrderPk:count 	38
attr interpolationmode  none
attr source  outOfOrderPk
attr title  "packets received out of order, count"
scalar scenarioPRJP1.node[0].app 	outOfOrderPk:sum(packetBytes) 	19456
attr interpolationmode  none
attr source  outOfOrderPk
attr title  "packets received out of order, sum(packetBytes)"
scalar scenarioPRJP1.node[0].app 	rcvdPk:count 	294
attr interpolationmode  none
attr source  rcvdPk
attr title  "packets received, count"
scalar scenarioPRJP1.node[0].app 	rcvdPk:sum(packetBytes) 	150528
attr interpolationmode  none
attr source  rcvdPk
attr title  "packets received, sum(packetBytes)"
statistic scenarioPRJP1.node[0].app 	endToEndDelay:histogram
field count 294
field mean 1.1380400213294
field stddev 2.1384750017541
field sum 334.58376627085
field sqrsum 1720.6807891096
field min 0.000956161823
field max 18.239743796824
attr interpolationmode  none
attr source  messageAge(rcvdPk)
attr title  "delay, histogram"
attr unit  s
bin	-INF	0
bin	-7.7916927070575	0
bin	-6.7526728578734	0
bin	-5.7136530086894	0
bin	-4.6746331595053	0
bin	-3.6356133103212	0
bin	-2.5965934611372	0
bin	-1.5575736119531	0
bin	-0.51855376276903	155
bin	0.52046608641503	77
bin	1.5594859355991	33
bin	2.5985057847832	13
bin	3.6375256339672	7
bin	4.6765454831513	2
bin	5.7155653323354	2
bin	6.7545851815194	0
bin	7.7936050307035	0
bin	8.8326248798876	1
bin	9.8716447290716	0
bin	10.910664578256	0
bin	11.94968442744	1
bin	12.988704276624	0
bin	14.027724125808	0
bin	15.066743974992	1
bin	16.105763824176	0
bin	17.14478367336	1
bin	18.183803522544	1
bin	19.222823371728	0
bin	20.261843220912	0
bin	21.300863070096	0
bin	22.33988291928	0
bin	23.378902768464	0
scalar scenarioPRJP1.node[0].app 	sentPk:count 	2611
attr interpolationmode  none
attr source  sentPk
attr title  "packets sent, count"
scalar scenarioPRJP1.node[0].app 	sentPk:sum(packetBytes) 	1336832
attr interpolationmode  none
attr source  sentPk
attr title  "packets sent, sum(packetBytes)"
scalar scenarioPRJP1.node[0].udp 	droppedPkBadChecksum:count 	0
attr interpolationmode  none
attr title  "packets dropped (checksum error), count"
scalar scenarioPRJP1.node[0].udp 	droppedPkWrongPort:count 	0
attr interpolationmode  none
attr title  "packets dropped (wrong port), count"
scalar scenarioPRJP1.node[0].udp 	passedUpPk:count 	334
attr interpolationmode  none
attr title  "packets passed up, count"
scalar scenarioPRJP1.node[0].udp 	rcvdPk:count 	334
attr interpolationmode  none
attr source  rcvdPk
attr title  "packets received, count"
scalar scenarioPRJP1.node[0].udp 	rcvdPk:sum(packetBytes) 	173680
attr interpolationmode  none
attr source  rcvdPk
attr title  "packets received, sum(packetBytes)"
scalar scenarioPRJP1.node[0].udp 	sentPk:count 	2611
attr interpolationmode  none
attr source  sentPk
attr title  "packets sent, count"
scalar scenarioPRJP1.node[0].udp 	sentPk:sum(packetBytes) 	1357720
attr interpolationmode  none
attr source  sentPk
attr title  "packets sent, sum(packetBytes)"
scalar scenarioPRJP1.node[0].networkLayer.arp 	failedARPResolution:count 	296
attr title  "ARP failed resolutions, count"
scalar scenarioPRJP1.node[0].networkLayer.arp 	completedARPResolution:count 	1242
attr title  "ARP completed resolutions, count"
scalar scenarioPRJP1.node[0].networkLayer.arp 	initiatedARPResolution:count 	348
attr title  "ARP initiated resolutions, count"
scalar scenarioPRJP1.node[0].networkLayer.arp 	sentReply:count 	20
attr title  "ARP replies sent, count"
scalar scenarioPRJP1.node[0].networkLayer.arp 	sentReq:count 	988
attr title  "ARP request sent, count"
scalar scenarioPRJP1.node[0].mobility 	startTime 	0.1
scalar scenarioPRJP1.node[0].mobility 	totalTime 	949.9
scalar scenarioPRJP1.node[0].mobility 	stopTime 	950
scalar scenarioPRJP1.node[0].mobility 	minSpeed 	2.4754638037382e-13
scalar scenarioPRJP1.node[0].mobility 	maxSpeed 	20.385265932698
scalar scenarioPRJP1.node[0].mobility 	totalDistance 	10729.619599566
scalar scenarioPRJP1.node[0].mobility 	totalCO2Emission 	2874.1316564073
scalar scenarioPRJP1.node[0].wlan.mgmt 	dataQueueLen:max 	4
attr interpolationmode  sample-hold
attr title  "data queue length, max"
scalar scenarioPRJP1.node[0].wlan.mgmt 	dataQueueLen:timeavg 	0
attr interpolationmode  sample-hold
attr title  "data queue length, timeavg"
scalar scenarioPRJP1.node[0].wlan.mgmt 	dropPkByQueue:count 	0
attr interpolationmode  none
attr source  dropPkByQueue
attr title  "packets dropped by queue, count"
scalar scenarioPRJP1.node[0].wlan.mgmt 	dropPkByQueue:sum(packetBytes) 	0
attr interpolationmode  none
attr source  dropPkByQueue
attr title  "packets dropped by queue, sum(packetBytes)"
scalar scenarioPRJP1.node[0].wlan.mac 	"number of received packets" 	9945
scalar scenarioPRJP1.node[0].wlan.mac 	"number of collisions" 	39242
scalar scenarioPRJP1.node[0].wlan.mac 	"number of internal collisions" 	0
scalar scenarioPRJP1.node[0].wlan.mac 	"number of retry for AC 0" 	57382
scalar scenarioPRJP1.node[0].wlan.mac 	"number of retry for AC 1" 	0
scalar scenarioPRJP1.node[0].wlan.mac 	"number of retry for AC 2" 	0
scalar scenarioPRJP1.node[0].wlan.mac 	"number of retry for AC 3" 	0
scalar scenarioPRJP1.node[0].wlan.mac 	"sent and received bits" 	7307392
scalar scenarioPRJP1.node[0].wlan.mac 	"sent packet within AC 0" 	2145
scalar scenarioPRJP1.node[0].wlan.mac 	"sent packet within AC 1" 	0
scalar scenarioPRJP1.node[0].wlan.mac 	"sent packet within AC 2" 	0
scalar scenarioPRJP1.node[0].wlan.mac 	"sent packet within AC 3" 	0
scalar scenarioPRJP1.node[0].wlan.mac 	"sent in TXOP " 	0
scalar scenarioPRJP1.node[0].wlan.mac 	"sentWithoutRetry AC 0" 	1759
scalar scenarioPRJP1.node[0].wlan.mac 	"sentWithoutRetry AC 1" 	0
scalar scenarioPRJP1.node[0].wlan.mac 	"sentWithoutRetry AC 2" 	0
scalar scenarioPRJP1.node[0].wlan.mac 	"sentWithoutRetry AC 3" 	0
scalar scenarioPRJP1.node[0].wlan.mac 	"numGivenUp AC 0" 	9441
scalar scenarioPRJP1.node[0].wlan.mac 	"numGivenUp AC 1" 	0
scalar scenarioPRJP1.node[0].wlan.mac 	"numGivenUp AC 2" 	0
scalar scenarioPRJP1.node[0].wlan.mac 	"numGivenUp AC 3" 	0
scalar scenarioPRJP1.node[0].wlan.mac 	"numDropped AC 0" 	0
scalar scenarioPRJP1.node[0].wlan.mac 	"numDropped AC 1" 	0
scalar scenarioPRJP1.node[0].wlan.mac 	"numDropped AC 2" 	0
scalar scenarioPRJP1.node[0].wlan.mac 	"numDropped AC 3" 	0
scalar scenarioPRJP1.node[0].wlan.mac 	rcvdPkFromLL:count 	170792
attr interpolationmode  none
attr source  packetReceivedFromLower
attr title  "packets received from lower layer, count"
scalar scenarioPRJP1.node[0].wlan.mac 	rcvdPkFromLL:sum(packetBytes) 	44916052
attr interpolationmode  none
attr source  packetReceivedFromLower
attr title  "packets received from lower layer, sum(packetBytes)"
scalar scenarioPRJP1.node[0].wlan.mac 	sentDownPk:count 	82120
attr interpolationmode  none
attr source  packetSentToLower
attr title  "packets sent to lower layer, count"
scalar scenarioPRJP1.node[0].wlan.mac 	sentDownPk:sum(packetBytes) 	22653750
attr interpolationmode  none
attr source  packetSentToLower
attr title  "packets sent to lower layer, sum(packetBytes)"
scalar scenarioPRJP1.node[0].wlan.mac 	rcvdPkFromHL:count 	14793
attr interpolationmode  none
attr source  packetReceivedFromUpper
attr title  "packets received from higher layer, count"
scalar scenarioPRJP1.node[0].wlan.mac 	rcvdPkFromHL:sum(packetBytes) 	3950200
attr interpolationmode  none
attr source  packetReceivedFromUpper
attr title  "packets received from higher layer, sum(packetBytes)"
scalar scenarioPRJP1.node[0].wlan.mac 	passedUpPk:count 	9745
attr interpolationmode  none
attr source  packetSentToUpper
attr title  "packets passed to higher layer, count"
scalar scenarioPRJP1.node[0].wlan.mac 	passedUpPk:sum(packetBytes) 	1901808
attr interpolationmode  none
attr source  packetSentToUpper
attr title  "packets passed to higher layer, sum(packetBytes)"
statistic scenarioPRJP1.node[0].wlan.radio 	radioChannel:histogram
field count 1
field mean 3
field stddev -nan
field sum 3
field sqrsum 9
field min 3
field max 3
attr interpolationmode  sample-hold
attr source  radioChannelChanged
attr title  "Radio channel, histogram"
bin	-INF	0
bin	2	0
bin	3	1
bin	4	0
scalar scenarioPRJP1.node[0].wlan.radio 	transmissionState:count 	328480
attr interpolationmode  sample-hold
attr source  transmissionStateChanged
attr title  "Radio transmission state, count"
scalar scenarioPRJP1.node[0].wlan.radio 	receptionState:count 	515572
attr interpolationmode  sample-hold
attr source  receptionStateChanged
attr title  "Radio reception state, count"
scalar scenarioPRJP1.node[0].wlan.radio 	radioMode:count 	164242
attr interpolationmode  sample-hold
attr source  radioModeChanged
attr title  "Radio mode, count"
statistic scenarioPRJP1.node[0].wlan.radio 	symbolErrorRate:histogram
field count 0
field mean -nan
field stddev -nan
field sum 0
field sqrsum 0
field min -nan
field max -nan
attr source  symbolErrorRate
attr title  "Symbol error rate, histogram"
bin	-INF	0
bin	-0.5	0
bin	-0.46666666666667	0
bin	-0.43333333333333	0
bin	-0.4	0
bin	-0.36666666666667	0
bin	-0.33333333333333	0
bin	-0.3	0
bin	-0.26666666666667	0
bin	-0.23333333333333	0
bin	-0.2	0
bin	-0.16666666666667	0
bin	-0.13333333333333	0
bin	-0.1	0
bin	-0.066666666666667	0
bin	-0.033333333333333	0
bin	-6.9388939039072e-18	0
bin	0.033333333333333	0
bin	0.066666666666667	0
bin	0.1	0
bin	0.13333333333333	0
bin	0.16666666666667	0
bin	0.2	0
bin	0.23333333333333	0
bin	0.26666666666667	0
bin	0.3	0
bin	0.33333333333333	0
bin	0.36666666666667	0
bin	0.4	0
bin	0.43333333333333	0
bin	0.46666666666667	0
bin	0.5	0
statistic scenarioPRJP1.node[0].wlan.radio 	bitErrorRate:histogram
field count 0
field mean -nan
field stddev -nan
field sum 0
field sqrsum 0
field min -nan
field max -nan
attr source  bitErrorRate
attr title  "Bit error rate, histogram"
bin	-INF	0
bin	-0.5	0
bin	-0.46666666666667	0
bin	-0.43333333333333	0
bin	-0.4	0
bin	-0.36666666666667	0
bin	-0.33333333333333	0
bin	-0.3	0
bin	-0.26666666666667	0
bin	-0.23333333333333	0
bin	-0.2	0
bin	-0.16666666666667	0
bin	-0.13333333333333	0
bin	-0.1	0
bin	-0.066666666666667	0
bin	-0.033333333333333	0
bin	-6.9388939039072e-18	0
bin	0.033333333333333	0
bin	0.066666666666667	0
bin	0.1	0
bin	0.13333333333333	0
bin	0.16666666666667	0
bin	0.2	0
bin	0.23333333333333	0
bin	0.26666666666667	0
bin	0.3	0
bin	0.33333333333333	0
bin	0.36666666666667	0
bin	0.4	0
bin	0.43333333333333	0
bin	0.46666666666667	0
bin	0.5	0
statistic scenarioPRJP1.node[0].wlan.radio 	packetErrorRate:histogram
field count 170792
field mean 0.22442794908984
field stddev 0.4089653907296
field sum 38330.498280952
field sqrsum 37167.689433705
field min 0
field max 1
attr source  packetErrorRate
attr title  "Packet error rate, histogram"
bin	-INF	0
bin	-0.5	0
bin	-0.43333333333333	0
bin	-0.36666666666667	0
bin	-0.3	0
bin	-0.23333333333333	0
bin	-0.16666666666667	0
bin	-0.1	0
bin	-0.033333333333333	127706
bin	0.033333333333333	1929
bin	0.1	931
bin	0.16666666666667	620
bin	0.23333333333333	508
bin	0.3	456
bin	0.36666666666667	372
bin	0.43333333333333	344
bin	0.5	297
bin	0.56666666666667	315
bin	0.63333333333333	287
bin	0.7	290
bin	0.76666666666667	334
bin	0.83333333333333	401
bin	0.9	655
bin	0.96666666666667	35347
bin	1.0333333333333	0
bin	1.1	0
bin	1.1666666666667	0
bin	1.2333333333333	0
bin	1.3	0
bin	1.3666666666667	0
bin	1.4333333333333	0
bin	1.5	0
statistic scenarioPRJP1.node[0].wlan.radio 	minSNIR:histogram
field count 170792
field mean 2855.6029604375
field stddev 25949.05298691
field sum 487714140.81903
field sqrsum 1.1639541010092e+14
field min 7.122002708305e-05
field max 1480455.3553705
attr source  minSNIR
attr title  "Min SNIR, histogram"
bin	-INF	0
bin	-735.65394494718	0
bin	-637.41537630901	0
bin	-539.17680767085	0
bin	-440.93823903268	0
bin	-342.69967039451	0
bin	-244.46110175634	0
bin	-146.22253311818	0
bin	-47.983964480009	95218
bin	50.254604158159	18046
bin	148.49317279633	18913
bin	246.73174143449	7149
bin	344.97031007266	3961
bin	443.20887871083	2603
bin	541.447447349	1767
bin	639.68601598716	1403
bin	737.92458462533	1118
bin	836.1631532635	923
bin	934.40172190167	787
bin	1032.6402905398	715
bin	1130.878859178	610
bin	1229.1174278162	554
bin	1327.3559964543	508
bin	1425.5945650925	478
bin	1523.8331337307	427
bin	1622.0717023688	382
bin	1720.310271007	372
bin	1818.5488396452	311
bin	1916.7874082833	291
bin	2015.0259769215	302
bin	2113.2645455597	265
bin	2211.5031141978	13689
scalar scenarioPRJP1.node[0].lo0.lo 	droppedPkBitError:count 	0
attr interpolationmode  none
attr source  dropPkBitError
attr title  "packets dropped/bit error, count"
scalar scenarioPRJP1.node[0].lo0.lo 	droppedPkBitError:sum(packetBytes) 	0
attr interpolationmode  none
attr source  dropPkBitError
attr title  "packets dropped/bit error, sum(packetBytes)"
scalar scenarioPRJP1.node[0].lo0.lo 	rcvdPkFromHL:count 	334
attr interpolationmode  none
attr source  packetReceivedFromUpper
attr title  "packets received from higher layer, count"
scalar scenarioPRJP1.node[0].lo0.lo 	rcvdPkFromHL:sum(packetBytes) 	173680
attr interpolationmode  none
attr source  packetReceivedFromUpper
attr title  "packets received from higher layer, sum(packetBytes)"
scalar scenarioPRJP1.node[0].lo0.lo 	passedUpPk:count 	334
attr interpolationmode  none
attr source  packetSentToUpper
attr title  "packets passed to higher layer, count"
scalar scenarioPRJP1.node[0].lo0.lo 	passedUpPk:sum(packetBytes) 	173680
attr interpolationmode  none
attr source  packetSentToUpper
attr title  "packets passed to higher layer, sum(packetBytes)"
scalar scenarioPRJP1.node[13].app 	"Total sent" 	2615
scalar scenarioPRJP1.node[13].app 	"Total received" 	285
scalar scenarioPRJP1.node[13].app 	"Total deleted" 	4
scalar scenarioPRJP1.node[13].app 	dropPk:count 	4
attr interpolationmode  none
attr source  dropPk
attr title  "packets dropped, count"
scalar scenarioPRJP1.node[13].app 	dropPk:sum(packetBytes) 	2048
attr interpolationmode  none
attr source  dropPk
attr title  "packets dropped, sum(packetBytes)"
scalar scenarioPRJP1.node[13].app 	outOfOrderPk:count 	34
attr interpolationmode  none
attr source  outOfOrderPk
attr title  "packets received out of order, count"
scalar scenarioPRJP1.node[13].app 	outOfOrderPk:sum(packetBytes) 	17408
attr interpolationmode  none
attr source  outOfOrderPk
attr title  "packets received out of order, sum(packetBytes)"
scalar scenarioPRJP1.node[13].app 	rcvdPk:count 	285
attr interpolationmode  none
attr source  rcvdPk
attr title  "packets received, count"
scalar scenarioPRJP1.node[13].app 	rcvdPk:sum(packetBytes) 	145920
attr interpolationmode  none
attr source  rcvdPk
attr title  "packets received, sum(packetBytes)"
statistic scenarioPRJP1.node[13].app 	endToEndDelay:histogram
field count 285
field mean 1.197385808175
field stddev 1.8674962823558
field sum 341.25495532987
field sqrsum 1399.0758720314
field min 0.00096409227
field max 16.747542791597
attr interpolationmode  none
attr source  messageAge(rcvdPk)
attr title  "delay, histogram"
attr unit  s
bin	-INF	0
bin	-4.3783041202885	0
bin	-3.7944015728696	0
bin	-3.2104990254508	0
bin	-2.6265964780319	0
bin	-2.042693930613	0
bin	-1.4587913831942	0
bin	-0.8748888357753	0
bin	-0.29098628835643	123
bin	0.29291625906243	32
bin	0.8768188064813	68
bin	1.4607213539002	7
bin	2.044623901319	15
bin	2.6285264487379	14
bin	3.2124289961568	5
bin	3.7963315435756	7
bin	4.3802340909945	5
bin	4.9641366384134	4
bin	5.5480391858322	0
bin	6.1319417332511	1
bin	6.71584428067	0
bin	7.2997468280888	0
bin	7.8836493755077	1
bin	8.4675519229266	1
bin	9.0514544703454	0
bin	9.6353570177643	0
bin	10.219259565183	0
bin	10.803162112602	0
bin	11.387064660021	0
bin	11.97096720744	0
bin	12.554869754859	0
bin	13.138772302278	2
scalar scenarioPRJP1.node[13].app 	sentPk:count 	2615
attr interpolationmode  none
attr source  sentPk
attr title  "packets sent, count"
scalar scenarioPRJP1.node[13].app 	sentPk:sum(packetBytes) 	1338880
attr interpolationmode  none
attr source  sentPk
attr title  "packets sent, sum(packetBytes)"
scalar scenarioPRJP1.node[13].udp 	droppedPkBadChecksum:count 	0
attr interpolationmode  none
attr title  "packets dropped (checksum error), count"
scalar scenarioPRJP1.node[13].udp 	droppedPkWrongPort:count 	0
attr interpolationmode  none
attr title  "packets dropped (wrong port), count"
scalar scenarioPRJP1.node[13].udp 	passedUpPk:count 	323
attr interpolationmode  none
attr title  "packets passed up, count"
scalar scenarioPRJP1.node[13].udp 	rcvdPk:count 	323
attr interpolationmode  none
attr source  rcvdPk
attr title  "packets received, count"
scalar scenarioPRJP1.node[13].udp 	rcvdPk:sum(packetBytes) 	167960
attr interpolationmode  none
attr source  rcvdPk
attr title  "packets received, sum(packetBytes)"
scalar scenarioPRJP1.node[13].udp 	sentPk:count 	2615
attr interpolationmode  none
attr source  sentPk
attr title  "packets sent, count"
scalar scenarioPRJP1.node[13].udp 	sentPk:sum(packetBytes) 	1359800
attr interpolationmode  none
attr source  sentPk
attr title  "packets sent, sum(packetBytes)"
scalar scenarioPRJP1.node[13].networkLayer.arp 	failedARPResolution:count 	326
attr title  "ARP failed resolutions, count"
scalar scenarioPRJP1.node[13].networkLayer.arp 	completedARPResolution:count 	918
attr title  "ARP completed resolutions, count"
scalar scenarioPRJP1.node[13].networkLayer.arp 	initiatedARPResolution:count 	376
attr title  "ARP initiated resolutions, count"
scalar scenarioPRJP1.node[13].networkLayer.arp 	sentReply:count 	31
attr title  "ARP replies sent, count"
scalar scenarioPRJP1.node[13].networkLayer.arp 	sentReq:count 	1071
attr title  "ARP request sent, count"
scalar scenarioPRJP1.node[13].mobility 	startTime 	2.5
scalar scenarioPRJP1.node[13].mobility 	totalTime 	947.5
scalar scenarioPRJP1.node[13].mobility 	stopTime 	950
scalar scenarioPRJP1.node[13].mobility 	minSpeed 	2.4757697636665e-13
scalar scenarioPRJP1.node[13].mobility 	maxSpeed 	17.970982119705
scalar scenarioPRJP1.node[13].mobility 	totalDistance 	10314.760755397
scalar scenarioPRJP1.node[13].mobility 	totalCO2Emission 	2695.7403348778
scalar scenarioPRJP1.node[13].wlan.mgmt 	dataQueueLen:max 	6
attr interpolationmode  sample-hold
attr title  "data queue length, max"
scalar scenarioPRJP1.node[13].wlan.mgmt 	dataQueueLen:timeavg 	0
attr interpolationmode  sample-hold
attr title  "data queue length, timeavg"
scalar scenarioPRJP1.node[13].wlan.mgmt 	dropPkByQueue:count 	0
attr interpolationmode  none
attr source  dropPkByQueue
attr title  "packets dropped by queue, count"
scalar scenarioPRJP1.node[13].wlan.mgmt 	dropPkByQueue:sum(packetBytes) 	0
attr interpolationmode  none
attr source  dropPkByQueue
attr title  "packets dropped by queue, sum(packetBytes)"
scalar scenarioPRJP1.node[13].wlan.mac 	"number of received packets" 	9252
scalar scenarioPRJP1.node[13].wlan.mac 	"number of collisions" 	40784
scalar scenarioPRJP1.node[13].wlan.mac 	"number of internal collisions" 	0
scalar scenarioPRJP1.node[13].wlan.mac 	"number of retry for AC 0" 	60887
scalar scenarioPRJP1.node[13].wlan.mac 	"number of retry for AC 1" 	0
scalar scenarioPRJP1.node[13].wlan.mac 	"number of retry for AC 2" 	0
scalar scenarioPRJP1.node[13].wlan.mac 	"number of retry for AC 3" 	0
scalar scenarioPRJP1.node[13].wlan.mac 	"sent and received bits" 	4837472
scalar scenarioPRJP1.node[13].wlan.mac 	"sent packet within AC 0" 	1288
scalar scenarioPRJP1.node[13].wlan.mac 	"sent packet within AC 1" 	0
scalar scenarioPRJP1.node[13].wlan.mac 	"sent packet within AC 2" 	0
scalar scenarioPRJP1.node[13].wlan.mac 	"sent packet within AC 3" 	0
scalar scenarioPRJP1.node[13].wlan.mac 	"sent in TXOP " 	0
scalar scenarioPRJP1.node[13].wlan.mac 	"sentWithoutRetry AC 0" 	998
scalar scenarioPRJP1.node[13].wlan.mac 	"sentWithoutRetry AC 1" 	0
scalar scenarioPRJP1.node[13].wlan.mac 	"sentWithoutRetry AC 2" 	0
scalar scenarioPRJP1.node[13].wlan.mac 	"sentWithoutRetry AC 3" 	0
scalar scenarioPRJP1.node[13].wlan.mac 	"numGivenUp AC 0" 	10040
scalar scenarioPRJP1.node[13].wlan.mac 	"numGivenUp AC 1" 	0
scalar scenarioPRJP1.node[13].wlan.mac 	"numGivenUp AC 2" 	0
scalar scenarioPRJP1.node[13].wlan.mac 	"numGivenUp AC 3" 	0
scalar scenarioPRJP1.node[13].wlan.mac 	"numDropped AC 0" 	0
scalar scenarioPRJP1.node[13].wlan.mac 	"numDropped AC 1" 	0
scalar scenarioPRJP1.node[13].wlan.mac 	"numDropped AC 2" 	0
scalar scenarioPRJP1.node[13].wlan.mac 	"numDropped AC 3" 	0
scalar scenarioPRJP1.node[13].wlan.mac 	rcvdPkFromLL:count 	155944
attr interpolationmode  none
attr source  packetReceivedFromLower
attr title  "packets received from lower layer, count"
scalar scenarioPRJP1.node[13].wlan.mac 	rcvdPkFromLL:sum(packetBytes) 	41890700
attr interpolationmode  none
attr source  packetReceivedFromLower
attr title  "packets received from lower layer, sum(packetBytes)"
scalar scenarioPRJP1.node[13].wlan.mac 	sentDownPk:count 	84171
attr interpolationmode  none
attr source  packetSentToLower
attr title  "packets sent to lower layer, count"
scalar scenarioPRJP1.node[13].wlan.mac 	sentDownPk:sum(packetBytes) 	23978768
attr interpolationmode  none
attr source  packetSentToLower
attr title  "packets sent to lower layer, sum(packetBytes)"
scalar scenarioPRJP1.node[13].wlan.mac 	rcvdPkFromHL:count 	14032
attr interpolationmode  none
attr source  packetReceivedFromUpper
attr title  "packets received from higher layer, count"
scalar scenarioPRJP1.node[13].wlan.mac 	rcvdPkFromHL:sum(packetBytes) 	3881380
attr interpolationmode  none
attr source  packetReceivedFromUpper
attr title  "packets received from higher layer, sum(packetBytes)"
scalar scenarioPRJP1.node[13].wlan.mac 	passedUpPk:count 	7881
attr interpolationmode  none
attr source  packetSentToUpper
attr title  "packets passed to higher layer, count"
scalar scenarioPRJP1.node[13].wlan.mac 	passedUpPk:sum(packetBytes) 	1506616
attr interpolationmode  none
attr source  packetSentToUpper
attr title  "packets passed to higher layer, sum(packetBytes)"
statistic scenarioPRJP1.node[13].wlan.radio 	radioChannel:histogram
field count 1
field mean 3
field stddev -nan
field sum 3
field sqrsum 9
field min 3
field max 3
attr interpolationmode  sample-hold
attr source  radioChannelChanged
attr title  "Radio channel, histogram"
bin	-INF	0
bin	2	0
bin	3	1
bin	4	0
scalar scenarioPRJP1.node[13].wlan.radio 	transmissionState:count 	336684
attr interpolationmode  sample-hold
attr source  transmissionStateChanged
attr title  "Radio transmission state, count"
scalar scenarioPRJP1.node[13].wlan.radio 	receptionState:count 	488436
attr interpolationmode  sample-hold
attr source  receptionStateChanged
attr title  "Radio reception state, count"
scalar scenarioPRJP1.node[13].wlan.radio 	radioMode:count 	168344
attr interpolationmode  sample-hold
attr source  radioModeChanged
attr title  "Radio mode, count"
statistic scenarioPRJP1.node[13].wlan.radio 	symbolErrorRate:histogram
field count 0
field mean -nan
field stddev -nan
field sum 0
field sqrsum 0
field min -nan
field max -nan
attr source  symbolErrorRate
attr title  "Symbol error rate, histogram"
bin	-INF	0
bin	-0.5	0
bin	-0.46666666666667	0
bin	-0.43333333333333	0
bin	-0.4	0
bin	-0.36666666666667	0
bin	-0.33333333333333	0
bin	-0.3	0
bin	-0.26666666666667	0
bin	-0.23333333333333	0
bin	-0.2	0
bin	-0.16666666666667	0
bin	-0.13333333333333	0
bin	-0.1	0
bin	-0.066666666666667	0
bin	-0.033333333333333	0
bin	-6.9388939039072e-18	0
bin	0.033333333333333	0
bin	0.066666666666667	0
bin	0.1	0
bin	0.13333333333333	0
bin	0.16666666666667	0
bin	0.2	0
bin	0.23333333333333	0
bin	0.26666666666667	0
bin	0.3	0
bin	0.33333333333333	0
bin	0.36666666666667	0
bin	0.4	0
bin	0.43333333333333	0
bin	0.46666666666667	0
bin	0.5	0
statistic scenarioPRJP1.node[13].wlan.radio 	bitErrorRate:histogram
field count 0
field mean -nan
field stddev -nan
field sum 0
field sqrsum 0
field min -nan
field max -nan
attr source  bitErrorRate
attr title  "Bit error rate, histogram"
bin	-INF	0
bin	-0.5	0
bin	-0.46666666666667	0
bin	-0.43333333333333	0
bin	-0.4	0
bin	-0.36666666666667	0
bin	-0.33333333333333	0
bin	-0.3	0
bin	-0.26666666666667	0
bin	-0.23333333333333	0
bin	-0.2	0
bin	-0.16666666666667	0
bin	-0.13333333333333	0
bin	-0.1	0
bin	-0.066666666666667	0
bin	-0.033333333333333	0
bin	-6.9388939039072e-18	0
bin	0.033333333333333	0
bin	0.066666666666667	0
bin	0.1	0
bin	0.13333333333333	0
bin	0.16666666666667	0
bin	0.2	0
bin	0.23333333333333	0
bin	0.26666666666667	0
bin	0.3	0
bin	0.33333333333333	0
bin	0.36666666666667	0
bin	0.4	0
bin	0.43333333333333	0
bin	0.46666666666667	0
bin	0.5	0
statistic scenarioPRJP1.node[13].wlan.radio 	packetErrorRate:histogram
field count 155944
field mean 0.25539178233358
field stddev 0.42659354169866
field sum 39826.816104227
field sqrsum 38550.268344456
field min 0
field max 1
attr source  packetErrorRate
attr title  "Packet error rate, histogram"
bin	-INF	0
bin	-0.5	0
bin	-0.43333333333333	0
bin	-0.36666666666667	0
bin	-0.3	0
bin	-0.23333333333333	0
bin	-0.16666666666667	0
bin	-0.1	0
bin	-0.033333333333333	110894
bin	0.033333333333333	2158
bin	0.1	989
bin	0.16666666666667	699
bin	0.23333333333333	558
bin	0.3	477
bin	0.36666666666667	374
bin	0.43333333333333	370
bin	0.5	350
bin	0.56666666666667	333
bin	0.63333333333333	328
bin	0.7	363
bin	0.76666666666667	371
bin	0.83333333333333	417
bin	0.9	708
bin	0.96666666666667	36555
bin	1.0333333333333	0
bin	1.1	0
bin	1.1666666666667	0
bin	1.2333333333333	0
bin	1.3	0
bin	1.3666666666667	0
bin	1.4333333333333	0
bin	1.5	0
statistic scenarioPRJP1.node[13].wlan.radio 	minSNIR:histogram
field count 155944
field mean 590.95462359637
field stddev 5346.4280593322
field sum 92155827.822112
field sqrsum 4511980314846.1
field min 0.0004624206782511
field max 594330.55765155
attr source  minSNIR
attr title  "Min SNIR, histogram"
bin	-INF	0
bin	-477.58640359377	0
bin	-413.80587644734	0
bin	-350.02534930092	0
bin	-286.24482215449	0
bin	-222.46429500806	0
bin	-158.68376786163	0
bin	-94.903240715206	0
bin	-31.122713568778	92193
bin	32.657813577649	9534
bin	96.438340724077	15163
bin	160.2188678705	12552
bin	223.99939501693	6073
bin	287.77992216336	3557
bin	351.56044930979	2212
bin	415.34097645622	1522
bin	479.12150360264	1189
bin	542.90203074907	911
bin	606.6825578955	722
bin	670.46308504193	620
bin	734.24361218835	513
bin	798.02413933478	418
bin	861.80466648121	380
bin	925.58519362764	371
bin	989.36572077407	287
bin	1053.1462479205	267
bin	1116.9267750669	236
bin	1180.7073022133	222
bin	1244.4878293598	202
bin	1308.2683565062	194
bin	1372.0488836526	188
bin	1435.8294107991	6418
scalar scenarioPRJP1.node[13].lo0.lo 	droppedPkBitError:count 	0
attr interpolationmode  none
attr source  dropPkBitError
attr title  "packets dropped/bit error, count"
scalar scenarioPRJP1.node[13].lo0.lo 	droppedPkBitError:sum(packetBytes) 	0
attr interpolationmode  none
attr source  dropPkBitError
attr title  "packets dropped/bit error, sum(packetBytes)"
scalar scenarioPRJP1.node[13].lo0.lo 	rcvdPkFromHL:count 	323
attr interpolationmode  none
attr source  packetReceivedFromUpper
attr title  "packets received from higher layer, count"
scalar scenarioPRJP1.node[13].lo0.lo 	rcvdPkFromHL:sum(packetBytes) 	167960
attr interpolationmode  none
attr source  packetReceivedFromUpper
attr title  "packets received from higher layer, sum(packetBytes)"
scalar scenarioPRJP1.node[13].lo0.lo 	passedUpPk:count 	323
attr interpolationmode  none
attr source  packetSentToUpper
attr title  "packets passed to higher layer, count"
scalar scenarioPRJP1.node[13].lo0.lo 	passedUpPk:sum(packetBytes) 	167960
attr interpolationmode  none
attr source  packetSentToUpper
attr title  "packets passed to higher layer, sum(packetBytes)"
scalar scenarioPRJP1.node[1].app 	"Total sent" 	2590
scalar scenarioPRJP1.node[1].app 	"Total received" 	364
scalar scenarioPRJP1.node[1].app 	"Total deleted" 	2
scalar scenarioPRJP1.node[1].app 	dropPk:count 	2
attr interpolationmode  none
attr source  dropPk
attr title  "packets dropped, count"
scalar scenarioPRJP1.node[1].app 	dropPk:sum(packetBytes) 	1024
attr interpolationmode  none
attr source  dropPk
attr title  "packets dropped, sum(packetBytes)"
scalar scenarioPRJP1.node[1].app 	outOfOrderPk:count 	37
attr interpolationmode  none
attr source  outOfOrderPk
attr title  "packets received out of order, count"
scalar scenarioPRJP1.node[1].app 	outOfOrderPk:sum(packetBytes) 	18944
attr interpolationmode  none
attr source  outOfOrderPk
attr title  "packets received out of order, sum(packetBytes)"
scalar scenarioPRJP1.node[1].app 	rcvdPk:count 	364
attr interpolationmode  none
attr source  rcvdPk
attr title  "packets received, count"
scalar scenarioPRJP1.node[1].app 	rcvdPk:sum(packetBytes) 	186368
attr interpolationmode  none
attr source  rcvdPk
attr title  "packets received, sum(packetBytes)"
statistic scenarioPRJP1.node[1].app 	endToEndDelay:histogram
field count 364
field mean 1.0728517239744
field stddev 1.8601052055806
field sum 390.51802752669
field sqrsum 1674.9448085007
field min 0.001055033337
field max 19.107830518247
attr interpolationmode  none
attr source  messageAge(rcvdPk)
attr title  "delay, histogram"
attr unit  s
bin	-INF	0
bin	-9.548496380098	0
bin	-8.2748818512827	0
bin	-7.0012673224673	0
bin	-5.727652793652	0
bin	-4.4540382648367	0
bin	-3.1804237360213	0
bin	-1.906809207206	0
bin	-0.63319467839067	206
bin	0.64041985042467	89
bin	1.91403437924	41
bin	3.1876489080553	19
bin	4.4612634368707	2
bin	5.734877965686	2
bin	7.0084924945013	1
bin	8.2821070233167	2
bin	9.555721552132	0
bin	10.829336080947	0
bin	12.102950609763	0
bin	13.376565138578	0
bin	14.650179667393	0
bin	15.923794196209	1
bin	17.197408725024	0
bin	18.471023253839	1
bin	19.744637782655	0
bin	21.01825231147	0
bin	22.291866840285	0
bin	23.565481369101	0
bin	24.839095897916	0
bin	26.112710426731	0
bin	27.386324955547	0
bin	28.659939484362	0
scalar scenarioPRJP1.node[1].app 	sentPk:count 	2590
attr interpolationmode  none
attr source  sentPk
attr title  "packets sent, count"
scalar scenarioPRJP1.node[1].app 	sentPk:sum(packetBytes) 	1326080
attr interpolationmode  none
attr source  sentPk
attr title  "packets sent, sum(packetBytes)"
scalar scenarioPRJP1.node[1].udp 	droppedPkBadChecksum:count 	0
attr interpolationmode  none
attr title  "packets dropped (checksum error), count"
scalar scenarioPRJP1.node[1].udp 	droppedPkWrongPort:count 	0
attr interpolationmode  none
attr title  "packets dropped (wrong port), count"
scalar scenarioPRJP1.node[1].udp 	passedUpPk:count 	403
attr interpolationmode  none
attr title  "packets passed up, count"
scalar scenarioPRJP1.node[1].udp 	rcvdPk:count 	403
attr interpolationmode  none
attr source  rcvdPk
attr title  "packets received, count"
scalar scenarioPRJP1.node[1].udp 	rcvdPk:sum(packetBytes) 	209560
attr interpolationmode  none
attr source  rcvdPk
attr title  "packets received, sum(packetBytes)"
scalar scenarioPRJP1.node[1].udp 	sentPk:count 	2590
attr interpolationmode  none
attr source  sentPk
attr title  "packets sent, count"
scalar scenarioPRJP1.node[1].udp 	sentPk:sum(packetBytes) 	1346800
attr interpolationmode  none
attr source  sentPk
attr title  "packets sent, sum(packetBytes)"
scalar scenarioPRJP1.node[1].networkLayer.arp 	failedARPResolution:count 	196
attr title  "ARP failed resolutions, count"
scalar scenarioPRJP1.node[1].networkLayer.arp 	completedARPResolution:count 	1798
attr title  "ARP completed resolutions, count"
scalar scenarioPRJP1.node[1].networkLayer.arp 	initiatedARPResolution:count 	248
attr title  "ARP initiated resolutions, count"
scalar scenarioPRJP1.node[1].networkLayer.arp 	sentReply:count 	41
attr title  "ARP replies sent, count"
scalar scenarioPRJP1.node[1].networkLayer.arp 	sentReq:count 	676
attr title  "ARP request sent, count"
scalar scenarioPRJP1.node[1].mobility 	startTime 	0.1
scalar scenarioPRJP1.node[1].mobility 	totalTime 	949.9
scalar scenarioPRJP1.node[1].mobility 	stopTime 	950
scalar scenarioPRJP1.node[1].mobility 	minSpeed 	2.4754841467217e-13
scalar scenarioPRJP1.node[1].mobility 	maxSpeed 	16.1059867653
scalar scenarioPRJP1.node[1].mobility 	totalDistance 	9299.8756406104
scalar scenarioPRJP1.node[1].mobility 	totalCO2Emission 	2342.4523785049
scalar scenarioPRJP1.node[1].wlan.mgmt 	dataQueueLen:max 	6
attr interpolationmode  sample-hold
attr title  "data queue length, max"
scalar scenarioPRJP1.node[1].wlan.mgmt 	dataQueueLen:timeavg 	0
attr interpolationmode  sample-hold
attr title  "data queue length, timeavg"
scalar scenarioPRJP1.node[1].wlan.mgmt 	dropPkByQueue:count 	0
attr interpolationmode  none
attr source  dropPkByQueue
attr title  "packets dropped by queue, count"
scalar scenarioPRJP1.node[1].wlan.mgmt 	dropPkByQueue:sum(packetBytes) 	0
attr interpolationmode  none
attr source  dropPkByQueue
attr title  "packets dropped by queue, sum(packetBytes)"
scalar scenarioPRJP1.node[1].wlan.mac 	"number of received packets" 	13507
scalar scenarioPRJP1.node[1].wlan.mac 	"number of collisions" 	48727
scalar scenarioPRJP1.node[1].wlan.mac 	"number of internal collisions" 	0
scalar scenarioPRJP1.node[1].wlan.mac 	"number of retry for AC 0" 	67345
scalar scenarioPRJP1.node[1].wlan.mac 	"number of retry for AC 1" 	0
scalar scenarioPRJP1.node[1].wlan.mac 	"number of retry for AC 2" 	0
scalar scenarioPRJP1.node[1].wlan.mac 	"number of retry for AC 3" 	0
scalar scenarioPRJP1.node[1].wlan.mac 	"sent and received bits" 	9167264
scalar scenarioPRJP1.node[1].wlan.mac 	"sent packet within AC 0" 	3182
scalar scenarioPRJP1.node[1].wlan.mac 	"sent packet within AC 1" 	0
scalar scenarioPRJP1.node[1].wlan.mac 	"sent packet within AC 2" 	0
scalar scenarioPRJP1.node[1].wlan.mac 	"sent packet within AC 3" 	0
scalar scenarioPRJP1.node[1].wlan.mac 	"sent in TXOP " 	0
scalar scenarioPRJP1.node[1].wlan.mac 	"sentWithoutRetry AC 0" 	2574
scalar scenarioPRJP1.node[1].wlan.mac 	"sentWithoutRetry AC 1" 	0
scalar scenarioPRJP1.node[1].wlan.mac 	"sentWithoutRetry AC 2" 	0
scalar scenarioPRJP1.node[1].wlan.mac 	"sentWithoutRetry AC 3" 	0
scalar scenarioPRJP1.node[1].wlan.mac 	"numGivenUp AC 0" 	11031
scalar scenarioPRJP1.node[1].wlan.mac 	"numGivenUp AC 1" 	0
scalar scenarioPRJP1.node[1].wlan.mac 	"numGivenUp AC 2" 	0
scalar scenarioPRJP1.node[1].wlan.mac 	"numGivenUp AC 3" 	0
scalar scenarioPRJP1.node[1].wlan.mac 	"numDropped AC 0" 	0
scalar scenarioPRJP1.node[1].wlan.mac 	"numDropped AC 1" 	0
scalar scenarioPRJP1.node[1].wlan.mac 	"numDropped AC 2" 	0
scalar scenarioPRJP1.node[1].wlan.mac 	"numDropped AC 3" 	0
scalar scenarioPRJP1.node[1].wlan.mac 	rcvdPkFromLL:count 	238153
attr interpolationmode  none
attr source  packetReceivedFromLower
attr title  "packets received from lower layer, count"
scalar scenarioPRJP1.node[1].wlan.mac 	rcvdPkFromLL:sum(packetBytes) 	62467206
attr interpolationmode  none
attr source  packetReceivedFromLower
attr title  "packets received from lower layer, sum(packetBytes)"
scalar scenarioPRJP1.node[1].wlan.mac 	sentDownPk:count 	97046
attr interpolationmode  none
attr source  packetSentToLower
attr title  "packets sent to lower layer, count"
scalar scenarioPRJP1.node[1].wlan.mac 	sentDownPk:sum(packetBytes) 	26432362
attr interpolationmode  none
attr source  packetSentToLower
attr title  "packets sent to lower layer, sum(packetBytes)"
scalar scenarioPRJP1.node[1].wlan.mac 	rcvdPkFromHL:count 	16194
attr interpolationmode  none
attr source  packetReceivedFromUpper
attr title  "packets received from higher layer, count"
scalar scenarioPRJP1.node[1].wlan.mac 	rcvdPkFromHL:sum(packetBytes) 	4653208
attr interpolationmode  none
attr source  packetReceivedFromUpper
attr title  "packets received from higher layer, sum(packetBytes)"
scalar scenarioPRJP1.node[1].wlan.mac 	passedUpPk:count 	12377
attr interpolationmode  none
attr source  packetSentToUpper
attr title  "packets passed to higher layer, count"
scalar scenarioPRJP1.node[1].wlan.mac 	passedUpPk:sum(packetBytes) 	2473144
attr interpolationmode  none
attr source  packetSentToUpper
attr title  "packets passed to higher layer, sum(packetBytes)"
statistic scenarioPRJP1.node[1].wlan.radio 	radioChannel:histogram
field count 1
field mean 3
field stddev -nan
field sum 3
field sqrsum 9
field min 3
field max 3
attr interpolationmode  sample-hold
attr source  radioChannelChanged
attr title  "Radio channel, histogram"
bin	-INF	0
bin	2	0
bin	3	1
bin	4	0
scalar scenarioPRJP1.node[1].wlan.radio 	transmissionState:count 	388184
attr interpolationmode  sample-hold
attr source  transmissionStateChanged
attr title  "Radio transmission state, count"
scalar scenarioPRJP1.node[1].wlan.radio 	receptionState:count 	682538
attr interpolationmode  sample-hold
attr source  receptionStateChanged
attr title  "Radio reception state, count"
scalar scenarioPRJP1.node[1].wlan.radio 	radioMode:count 	194094
attr interpolationmode  sample-hold
attr source  radioModeChanged
attr title  "Radio mode, count"
statistic scenarioPRJP1.node[1].wlan.radio 	symbolErrorRate:histogram
field count 0
field mean -nan
field stddev -nan
field sum 0
field sqrsum 0
field min -nan
field max -nan
attr source  symbolErrorRate
attr title  "Symbol error rate, histogram"
bin	-INF	0
bin	-0.5	0
bin	-0.46666666666667	0
bin	-0.43333333333333	0
bin	-0.4	0
bin	-0.36666666666667	0
bin	-0.33333333333333	0
bin	-0.3	0
bin	-0.26666666666667	0
bin	-0.23333333333333	0
bin	-0.2	0
bin	-0.16666666666667	0
bin	-0.13333333333333	0
bin	-0.1	0
bin	-0.066666666666667	0
bin	-0.033333333333333	0
bin	-6.9388939039072e-18	0
bin	0.033333333333333	0
bin	0.066666666666667	0
bin	0.1	0
bin	0.13333333333333	0
bin	0.16666666666667	0
bin	0.2	0
bin	0.23333333333333	0
bin	0.26666666666667	0
bin	0.3	0
bin	0.33333333333333	0
bin	0.36666666666667	0
bin	0.4	0
bin	0.43333333333333	0
bin	0.46666666666667	0
bin	0.5	0
statistic scenarioPRJP1.node[1].wlan.radio 	bitErrorRate:histogram
field count 0
field mean -nan
field stddev -nan
field sum 0
field sqrsum 0
field min -nan
field max -nan
attr source  bitErrorRate
attr title  "Bit error rate, histogram"
bin	-INF	0
bin	-0.5	0
bin	-0.46666666666667	0
bin	-0.43333333333333	0
bin	-0.4	0
bin	-0.36666666666667	0
bin	-0.33333333333333	0
bin	-0.3	0
bin	-0.26666666666667	0
bin	-0.23333333333333	0
bin	-0.2	0
bin	-0.16666666666667	0
bin	-0.13333333333333	0
bin	-0.1	0
bin	-0.066666666666667	0
bin	-0.033333333333333	0
bin	-6.9388939039072e-18	0
bin	0.033333333333333	0
bin	0.066666666666667	0
bin	0.1	0
bin	0.13333333333333	0
bin	0.16666666666667	0
bin	0.2	0
bin	0.23333333333333	0
bin	0.26666666666667	0
bin	0.3	0
bin	0.33333333333333	0
bin	0.36666666666667	0
bin	0.4	0
bin	0.43333333333333	0
bin	0.46666666666667	0
bin	0.5	0
statistic scenarioPRJP1.node[1].wlan.radio 	packetErrorRate:histogram
field count 238153
field mean 0.2002541915897
field stddev 0.39228826998004
field sum 47691.136489662
field sqrsum 46199.581926735
field min 0
field max 1
attr source  packetErrorRate
attr title  "Packet error rate, histogram"
bin	-INF	0
bin	-0.5	0
bin	-0.43333333333333	0
bin	-0.36666666666667	0
bin	-0.3	0
bin	-0.23333333333333	0
bin	-0.16666666666667	0
bin	-0.1	0
bin	-0.033333333333333	184354
bin	0.033333333333333	2451
bin	0.1	1200
bin	0.16666666666667	866
bin	0.23333333333333	665
bin	0.3	524
bin	0.36666666666667	444
bin	0.43333333333333	442
bin	0.5	411
bin	0.56666666666667	399
bin	0.63333333333333	377
bin	0.7	396
bin	0.76666666666667	420
bin	0.83333333333333	507
bin	0.9	818
bin	0.96666666666667	43879
bin	1.0333333333333	0
bin	1.1	0
bin	1.1666666666667	0
bin	1.2333333333333	0
bin	1.3	0
bin	1.3666666666667	0
bin	1.4333333333333	0
bin	1.5	0
statistic scenarioPRJP1.node[1].wlan.radio 	minSNIR:histogram
field count 238153
field mean 4953.8247374212
field stddev 36725.339391821
field sum 1179768222.6911
field sqrsum 3.270520068099e+14
field min 0.00013468510000205
field max 2127392.4167221
attr source  minSNIR
attr title  "Min SNIR, histogram"
bin	-INF	0
bin	-3385.2974295005	0
bin	-2933.9112796303	0
bin	-2482.5251297601	0
bin	-2031.1389798899	0
bin	-1579.7528300197	0
bin	-1128.3666801495	0
bin	-676.9805302793	0
bin	-225.59438040911	170049
bin	225.79176946109	28513
bin	677.17791933128	7745
bin	1128.5640692015	4328
bin	1579.9502190717	2883
bin	2031.3363689419	2104
bin	2482.7225188121	1587
bin	2934.1086686823	1268
bin	3385.4948185525	1114
bin	3836.8809684227	906
bin	4288.2671182928	800
bin	4739.653268163	691
bin	5191.0394180332	648
bin	5642.4255679034	555
bin	6093.8117177736	550
bin	6545.1978676438	442
bin	6996.584017514	398
bin	7447.9701673842	398
bin	7899.3563172544	327
bin	8350.7424671246	359
bin	8802.1286169948	293
bin	9253.514766865	294
bin	9704.9009167352	290
bin	10156.287066605	11611
scalar scenarioPRJP1.node[1].lo0.lo 	droppedPkBitError:count 	0
attr interpolationmode  none
attr source  dropPkBitError
attr title  "packets dropped/bit error, count"
scalar scenarioPRJP1.node[1].lo0.lo 	droppedPkBitError:sum(packetBytes) 	0
attr interpolationmode  none
attr source  dropPkBitError
attr title  "packets dropped/bit error, sum(packetBytes)"
scalar scenarioPRJP1.node[1].lo0.lo 	rcvdPkFromHL:count 	403
attr interpolationmode  none
attr source  packetReceivedFromUpper
attr title  "packets received from higher layer, count"
scalar scenarioPRJP1.node[1].lo0.lo 	rcvdPkFromHL:sum(packetBytes) 	209560
attr interpolationmode  none
attr source  packetReceivedFromUpper
attr title  "packets received from higher layer, sum(packetBytes)"
scalar scenarioPRJP1.node[1].lo0.lo 	passedUpPk:count 	403
attr interpolationmode  none
attr source  packetSentToUpper
attr title  "packets passed to higher layer, count"
scalar scenarioPRJP1.node[1].lo0.lo 	passedUpPk:sum(packetBytes) 	209560
attr interpolationmode  none
attr source  packetSentToUpper
attr title  "packets passed to higher layer, sum(packetBytes)"
scalar scenarioPRJP1.node[14].app 	"Total sent" 	2615
scalar scenarioPRJP1.node[14].app 	"Total received" 	330
scalar scenarioPRJP1.node[14].app 	"Total deleted" 	9
scalar scenarioPRJP1.node[14].app 	dropPk:count 	9
attr interpolationmode  none
attr source  dropPk
attr title  "packets dropped, count"
scalar scenarioPRJP1.node[14].app 	dropPk:sum(packetBytes) 	4608
attr interpolationmode  none
attr source  dropPk
attr title  "packets dropped, sum(packetBytes)"
scalar scenarioPRJP1.node[14].app 	outOfOrderPk:count 	34
attr interpolationmode  none
attr source  outOfOrderPk
attr title  "packets received out of order, count"
scalar scenarioPRJP1.node[14].app 	outOfOrderPk:sum(packetBytes) 	17408
attr interpolationmode  none
attr source  outOfOrderPk
attr title  "packets received out of order, sum(packetBytes)"
scalar scenarioPRJP1.node[14].app 	rcvdPk:count 	330
attr interpolationmode  none
attr source  rcvdPk
attr title  "packets received, count"
scalar scenarioPRJP1.node[14].app 	rcvdPk:sum(packetBytes) 	168960
attr interpolationmode  none
attr source  rcvdPk
attr title  "packets received, sum(packetBytes)"
statistic scenarioPRJP1.node[14].app 	endToEndDelay:histogram
field count 330
field mean 1.2289957617229
field stddev 2.8057354980853
field sum 405.56860136855
field sqrsum 3088.3799966059
field min 0.000956108772
field max 19.938159156987
attr interpolationmode  none
attr source  messageAge(rcvdPk)
attr title  "delay, histogram"
attr unit  s
bin	-INF	0
bin	-9.9676454153355	0
bin	-8.6384985454545	0
bin	-7.3093516755735	0
bin	-5.9802048056925	0
bin	-4.6510579358115	0
bin	-3.3219110659305	0
bin	-1.9927641960495	0
bin	-0.6636173261685	203
bin	0.6655295437125	76
bin	1.9946764135935	26
bin	3.3238232834745	6
bin	4.6529701533555	8
bin	5.9821170232365	1
bin	7.3112638931175	0
bin	8.6404107629985	0
bin	9.9695576328795	1
bin	11.298704502761	3
bin	12.627851372642	0
bin	13.956998242523	0
bin	15.286145112403	2
bin	16.615291982284	2
bin	17.944438852166	0
bin	19.273585722046	2
bin	20.602732591927	0
bin	21.931879461808	0
bin	23.26102633169	0
bin	24.590173201571	0
bin	25.919320071451	0
bin	27.248466941332	0
bin	28.577613811213	0
bin	29.906760681094	0
scalar scenarioPRJP1.node[14].app 	sentPk:count 	2615
attr interpolationmode  none
attr source  sentPk
attr title  "packets sent, count"
scalar scenarioPRJP1.node[14].app 	sentPk:sum(packetBytes) 	1338880
attr interpolationmode  none
attr source  sentPk
attr title  "packets sent, sum(packetBytes)"
scalar scenarioPRJP1.node[14].udp 	droppedPkBadChecksum:count 	0
attr interpolationmode  none
attr title  "packets dropped (checksum error), count"
scalar scenarioPRJP1.node[14].udp 	droppedPkWrongPort:count 	0
attr interpolationmode  none
attr title  "packets dropped (wrong port), count"
scalar scenarioPRJP1.node[14].udp 	passedUpPk:count 	373
attr interpolationmode  none
attr title  "packets passed up, count"
scalar scenarioPRJP1.node[14].udp 	rcvdPk:count 	373
attr interpolationmode  none
attr source  rcvdPk
attr title  "packets received, count"
scalar scenarioPRJP1.node[14].udp 	rcvdPk:sum(packetBytes) 	193960
attr interpolationmode  none
attr source  rcvdPk
attr title  "packets received, sum(packetBytes)"
scalar scenarioPRJP1.node[14].udp 	sentPk:count 	2615
attr interpolationmode  none
attr source  sentPk
attr title  "packets sent, count"
scalar scenarioPRJP1.node[14].udp 	sentPk:sum(packetBytes) 	1359800
attr interpolationmode  none
attr source  sentPk
attr title  "packets sent, sum(packetBytes)"
scalar scenarioPRJP1.node[14].networkLayer.arp 	failedARPResolution:count 	271
attr title  "ARP failed resolutions, count"
scalar scenarioPRJP1.node[14].networkLayer.arp 	completedARPResolution:count 	1321
attr title  "ARP completed resolutions, count"
scalar scenarioPRJP1.node[14].networkLayer.arp 	initiatedARPResolution:count 	321
attr title  "ARP initiated resolutions, count"
scalar scenarioPRJP1.node[14].networkLayer.arp 	sentReply:count 	26
attr title  "ARP replies sent, count"
scalar scenarioPRJP1.node[14].networkLayer.arp 	sentReq:count 	903
attr title  "ARP request sent, count"
scalar scenarioPRJP1.node[14].mobility 	startTime 	2.5
scalar scenarioPRJP1.node[14].mobility 	totalTime 	947.5
scalar scenarioPRJP1.node[14].mobility 	stopTime 	950
scalar scenarioPRJP1.node[14].mobility 	minSpeed 	2.4756653568773e-13
scalar scenarioPRJP1.node[14].mobility 	maxSpeed 	17.481210833895
scalar scenarioPRJP1.node[14].mobility 	totalDistance 	9607.6114347735
scalar scenarioPRJP1.node[14].mobility 	totalCO2Emission 	2534.4905978685
scalar scenarioPRJP1.node[14].wlan.mgmt 	dataQueueLen:max 	8
attr interpolationmode  sample-hold
attr title  "data queue length, max"
scalar scenarioPRJP1.node[14].wlan.mgmt 	dataQueueLen:timeavg 	0
attr interpolationmode  sample-hold
attr title  "data queue length, timeavg"
scalar scenarioPRJP1.node[14].wlan.mgmt 	dropPkByQueue:count 	0
attr interpolationmode  none
attr source  dropPkByQueue
attr title  "packets dropped by queue, count"
scalar scenarioPRJP1.node[14].wlan.mgmt 	dropPkByQueue:sum(packetBytes) 	0
attr interpolationmode  none
attr source  dropPkByQueue
attr title  "packets dropped by queue, sum(packetBytes)"
scalar scenarioPRJP1.node[14].wlan.mac 	"number of received packets" 	8972
scalar scenarioPRJP1.node[14].wlan.mac 	"number of collisions" 	30073
scalar scenarioPRJP1.node[14].wlan.mac 	"number of internal collisions" 	0
scalar scenarioPRJP1.node[14].wlan.mac 	"number of retry for AC 0" 	47257
scalar scenarioPRJP1.node[14].wlan.mac 	"number of retry for AC 1" 	0
scalar scenarioPRJP1.node[14].wlan.mac 	"number of retry for AC 2" 	0
scalar scenarioPRJP1.node[14].wlan.mac 	"number of retry for AC 3" 	0
scalar scenarioPRJP1.node[14].wlan.mac 	"sent and received bits" 	8860704
scalar scenarioPRJP1.node[14].wlan.mac 	"sent packet within AC 0" 	2804
scalar scenarioPRJP1.node[14].wlan.mac 	"sent packet within AC 1" 	0
scalar scenarioPRJP1.node[14].wlan.mac 	"sent packet within AC 2" 	0
scalar scenarioPRJP1.node[14].wlan.mac 	"sent packet within AC 3" 	0
scalar scenarioPRJP1.node[14].wlan.mac 	"sent in TXOP " 	0
scalar scenarioPRJP1.node[14].wlan.mac 	"sentWithoutRetry AC 0" 	2431
scalar scenarioPRJP1.node[14].wlan.mac 	"sentWithoutRetry AC 1" 	0
scalar scenarioPRJP1.node[14].wlan.mac 	"sentWithoutRetry AC 2" 	0
scalar scenarioPRJP1.node[14].wlan.mac 	"sentWithoutRetry AC 3" 	0
scalar scenarioPRJP1.node[14].wlan.mac 	"numGivenUp AC 0" 	7767
scalar scenarioPRJP1.node[14].wlan.mac 	"numGivenUp AC 1" 	0
scalar scenarioPRJP1.node[14].wlan.mac 	"numGivenUp AC 2" 	0
scalar scenarioPRJP1.node[14].wlan.mac 	"numGivenUp AC 3" 	0
scalar scenarioPRJP1.node[14].wlan.mac 	"numDropped AC 0" 	0
scalar scenarioPRJP1.node[14].wlan.mac 	"numDropped AC 1" 	0
scalar scenarioPRJP1.node[14].wlan.mac 	"numDropped AC 2" 	0
scalar scenarioPRJP1.node[14].wlan.mac 	"numDropped AC 3" 	0
scalar scenarioPRJP1.node[14].wlan.mac 	rcvdPkFromLL:count 	175406
attr interpolationmode  none
attr source  packetReceivedFromLower
attr title  "packets received from lower layer, count"
scalar scenarioPRJP1.node[14].wlan.mac 	rcvdPkFromLL:sum(packetBytes) 	46597858
attr interpolationmode  none
attr source  packetReceivedFromLower
attr title  "packets received from lower layer, sum(packetBytes)"
scalar scenarioPRJP1.node[14].wlan.mac 	sentDownPk:count 	69960
attr interpolationmode  none
attr source  packetSentToLower
attr title  "packets sent to lower layer, count"
scalar scenarioPRJP1.node[14].wlan.mac 	sentDownPk:sum(packetBytes) 	19534752
attr interpolationmode  none
attr source  packetSentToLower
attr title  "packets sent to lower layer, sum(packetBytes)"
scalar scenarioPRJP1.node[14].wlan.mac 	rcvdPkFromHL:count 	13731
attr interpolationmode  none
attr source  packetReceivedFromUpper
attr title  "packets received from higher layer, count"
scalar scenarioPRJP1.node[14].wlan.mac 	rcvdPkFromHL:sum(packetBytes) 	3678624
attr interpolationmode  none
attr source  packetReceivedFromUpper
attr title  "packets received from higher layer, sum(packetBytes)"
scalar scenarioPRJP1.node[14].wlan.mac 	passedUpPk:count 	10117
attr interpolationmode  none
attr source  packetSentToUpper
attr title  "packets passed to higher layer, count"
scalar scenarioPRJP1.node[14].wlan.mac 	passedUpPk:sum(packetBytes) 	1856948
attr interpolationmode  none
attr source  packetSentToUpper
attr title  "packets passed to higher layer, sum(packetBytes)"
statistic scenarioPRJP1.node[14].wlan.radio 	radioChannel:histogram
field count 1
field mean 3
field stddev -nan
field sum 3
field sqrsum 9
field min 3
field max 3
attr interpolationmode  sample-hold
attr source  radioChannelChanged
attr title  "Radio channel, histogram"
bin	-INF	0
bin	2	0
bin	3	1
bin	4	0
scalar scenarioPRJP1.node[14].wlan.radio 	transmissionState:count 	279840
attr interpolationmode  sample-hold
attr source  transmissionStateChanged
attr title  "Radio transmission state, count"
scalar scenarioPRJP1.node[14].wlan.radio 	receptionState:count 	497895
attr interpolationmode  sample-hold
attr source  receptionStateChanged
attr title  "Radio reception state, count"
scalar scenarioPRJP1.node[14].wlan.radio 	radioMode:count 	139922
attr interpolationmode  sample-hold
attr source  radioModeChanged
attr title  "Radio mode, count"
statistic scenarioPRJP1.node[14].wlan.radio 	symbolErrorRate:histogram
field count 0
field mean -nan
field stddev -nan
field sum 0
field sqrsum 0
field min -nan
field max -nan
attr source  symbolErrorRate
attr title  "Symbol error rate, histogram"
bin	-INF	0
bin	-0.5	0
bin	-0.46666666666667	0
bin	-0.43333333333333	0
bin	-0.4	0
bin	-0.36666666666667	0
bin	-0.33333333333333	0
bin	-0.3	0
bin	-0.26666666666667	0
bin	-0.23333333333333	0
bin	-0.2	0
bin	-0.16666666666667	0
bin	-0.13333333333333	0
bin	-0.1	0
bin	-0.066666666666667	0
bin	-0.033333333333333	0
bin	-6.9388939039072e-18	0
bin	0.033333333333333	0
bin	0.066666666666667	0
bin	0.1	0
bin	0.13333333333333	0
bin	0.16666666666667	0
bin	0.2	0
bin	0.23333333333333	0
bin	0.26666666666667	0
bin	0.3	0
bin	0.33333333333333	0
bin	0.36666666666667	0
bin	0.4	0
bin	0.43333333333333	0
bin	0.46666666666667	0
bin	0.5	0
statistic scenarioPRJP1.node[14].wlan.radio 	bitErrorRate:histogram
field count 0
field mean -nan
field stddev -nan
field sum 0
field sqrsum 0
field min -nan
field max -nan
attr source  bitErrorRate
attr title  "Bit error rate, histogram"
bin	-INF	0
bin	-0.5	0
bin	-0.46666666666667	0
bin	-0.43333333333333	0
bin	-0.4	0
bin	-0.36666666666667	0
bin	-0.33333333333333	0
bin	-0.3	0
bin	-0.26666666666667	0
bin	-0.23333333333333	0
bin	-0.2	0
bin	-0.16666666666667	0
bin	-0.13333333333333	0
bin	-0.1	0
bin	-0.066666666666667	0
bin	-0.033333333333333	0
bin	-6.9388939039072e-18	0
bin	0.033333333333333	0
bin	0.066666666666667	0
bin	0.1	0
bin	0.13333333333333	0
bin	0.16666666666667	0
bin	0.2	0
bin	0.23333333333333	0
bin	0.26666666666667	0
bin	0.3	0
bin	0.33333333333333	0
bin	0.36666666666667	0
bin	0.4	0
bin	0.43333333333333	0
bin	0.46666666666667	0
bin	0.5	0
statistic scenarioPRJP1.node[14].wlan.radio 	packetErrorRate:histogram
field count 175406
field mean 0.16807512792153
field stddev 0.36639822189425
field sum 29481.385888203
field sqrsum 28502.797981823
field min 0
field max 1
attr source  packetErrorRate
attr title  "Packet error rate, histogram"
bin	-INF	0
bin	-0.5	0
bin	-0.43333333333333	0
bin	-0.36666666666667	0
bin	-0.3	0
bin	-0.23333333333333	0
bin	-0.16666666666667	0
bin	-0.1	0
bin	-0.033333333333333	141916
bin	0.033333333333333	1668
bin	0.1	795
bin	0.16666666666667	498
bin	0.23333333333333	389
bin	0.3	335
bin	0.36666666666667	356
bin	0.43333333333333	265
bin	0.5	258
bin	0.56666666666667	237
bin	0.63333333333333	283
bin	0.7	291
bin	0.76666666666667	294
bin	0.83333333333333	362
bin	0.9	494
bin	0.96666666666667	26965
bin	1.0333333333333	0
bin	1.1	0
bin	1.1666666666667	0
bin	1.2333333333333	0
bin	1.3	0
bin	1.3666666666667	0
bin	1.4333333333333	0
bin	1.5	0
statistic scenarioPRJP1.node[14].wlan.radio 	minSNIR:histogram
field count 175406
field mean 6091.6426855203
field stddev 37463.057441275
field sum 1068510676.8964
field sqrsum 2.5268651267027e+14
field min 0.00011817287940652
field max 2195414.1642569
attr source  minSNIR
attr title  "Min SNIR, histogram"
bin	-INF	0
bin	-14067.504865371	0
bin	-12191.833838147	0
bin	-10316.162810923	0
bin	-8440.4917836992	0
bin	-6564.8207564751	0
bin	-4689.1497292511	0
bin	-2813.478702027	0
bin	-937.80767480298	142736
bin	937.86335242107	11316
bin	2813.5343796451	4210
bin	4689.2054068692	2506
bin	6564.8764340932	1712
bin	8440.5474613173	1199
bin	10316.218488541	1005
bin	12191.889515765	750
bin	14067.560542989	598
bin	15943.231570214	500
bin	17818.902597438	422
bin	19694.573624662	440
bin	21570.244651886	347
bin	23445.91567911	293
bin	25321.586706334	266
bin	27197.257733558	293
bin	29072.928760782	205
bin	30948.599788006	224
bin	32824.27081523	197
bin	34699.941842454	187
bin	36575.612869678	186
bin	38451.283896902	182
bin	40326.954924126	172
bin	42202.62595135	5460
scalar scenarioPRJP1.node[14].lo0.lo 	droppedPkBitError:count 	0
attr interpolationmode  none
attr source  dropPkBitError
attr title  "packets dropped/bit error, count"
scalar scenarioPRJP1.node[14].lo0.lo 	droppedPkBitError:sum(packetBytes) 	0
attr interpolationmode  none
attr source  dropPkBitError
attr title  "packets dropped/bit error, sum(packetBytes)"
scalar scenarioPRJP1.node[14].lo0.lo 	rcvdPkFromHL:count 	373
attr interpolationmode  none
attr source  packetReceivedFromUpper
attr title  "packets received from higher layer, count"
scalar scenarioPRJP1.node[14].lo0.lo 	rcvdPkFromHL:sum(packetBytes) 	193960
attr interpolationmode  none
attr source  packetReceivedFromUpper
attr title  "packets received from higher layer, sum(packetBytes)"
scalar scenarioPRJP1.node[14].lo0.lo 	passedUpPk:count 	373
attr interpolationmode  none
attr source  packetSentToUpper
attr title  "packets passed to higher layer, count"
scalar scenarioPRJP1.node[14].lo0.lo 	passedUpPk:sum(packetBytes) 	193960
attr interpolationmode  none
attr source  packetSentToUpper
attr title  "packets passed to higher layer, sum(packetBytes)"
scalar scenarioPRJP1.node[2].app 	"Total sent" 	2607
scalar scenarioPRJP1.node[2].app 	"Total received" 	398
scalar scenarioPRJP1.node[2].app 	"Total deleted" 	3
scalar scenarioPRJP1.node[2].app 	dropPk:count 	3
attr interpolationmode  none
attr source  dropPk
attr title  "packets dropped, count"
scalar scenarioPRJP1.node[2].app 	dropPk:sum(packetBytes) 	1536
attr interpolationmode  none
attr source  dropPk
attr title  "packets dropped, sum(packetBytes)"
scalar scenarioPRJP1.node[2].app 	outOfOrderPk:count 	38
attr interpolationmode  none
attr source  outOfOrderPk
attr title  "packets received out of order, count"
scalar scenarioPRJP1.node[2].app 	outOfOrderPk:sum(packetBytes) 	19456
attr interpolationmode  none
attr source  outOfOrderPk
attr title  "packets received out of order, sum(packetBytes)"
scalar scenarioPRJP1.node[2].app 	rcvdPk:count 	398
attr interpolationmode  none
attr source  rcvdPk
attr title  "packets received, count"
scalar scenarioPRJP1.node[2].app 	rcvdPk:sum(packetBytes) 	203776
attr interpolationmode  none
attr source  rcvdPk
attr title  "packets received, sum(packetBytes)"
statistic scenarioPRJP1.node[2].app 	endToEndDelay:histogram
field count 398
field mean 1.1434803104773
field stddev 2.2079771471941
field sum 455.10516356997
field sqrsum 2455.8435375037
field min 0.000956756387
field max 19.711935252428
attr interpolationmode  none
attr source  messageAge(rcvdPk)
attr title  "delay, histogram"
attr unit  s
bin	-INF	0
bin	-2.6814535508125	0
bin	-2.323797872954	0
bin	-1.9661421950956	0
bin	-1.6084865172371	0
bin	-1.2508308393786	0
bin	-0.89317516152017	0
bin	-0.5355194836617	0
bin	-0.17786380580323	199
bin	0.17979187205523	20
bin	0.5374475499137	31
bin	0.89510322777217	17
bin	1.2527589056306	44
bin	1.6104145834891	19
bin	1.9680702613476	10
bin	2.325725939206	19
bin	2.6833816170645	4
bin	3.041037294923	6
bin	3.3986929727814	6
bin	3.7563486506399	2
bin	4.1140043284984	4
bin	4.4716600063568	0
bin	4.8293156842153	2
bin	5.1869713620738	2
bin	5.5446270399322	1
bin	5.9022827177907	0
bin	6.2599383956492	0
bin	6.6175940735076	0
bin	6.9752497513661	1
bin	7.3329054292246	2
bin	7.690561107083	1
bin	8.0482167849415	8
scalar scenarioPRJP1.node[2].app 	sentPk:count 	2607
attr interpolationmode  none
attr source  sentPk
attr title  "packets sent, count"
scalar scenarioPRJP1.node[2].app 	sentPk:sum(packetBytes) 	1334784
attr interpolationmode  none
attr source  sentPk
attr title  "packets sent, sum(packetBytes)"
scalar scenarioPRJP1.node[2].udp 	droppedPkBadChecksum:count 	0
attr interpolationmode  none
attr title  "packets dropped (checksum error), count"
scalar scenarioPRJP1.node[2].udp 	droppedPkWrongPort:count 	0
attr interpolationmode  none
attr title  "packets dropped (wrong port), count"
scalar scenarioPRJP1.node[2].udp 	passedUpPk:count 	439
attr interpolationmode  none
attr title  "packets passed up, count"
scalar scenarioPRJP1.node[2].udp 	rcvdPk:count 	439
attr interpolationmode  none
attr source  rcvdPk
attr title  "packets received, count"
scalar scenarioPRJP1.node[2].udp 	rcvdPk:sum(packetBytes) 	228280
attr interpolationmode  none
attr source  rcvdPk
attr title  "packets received, sum(packetBytes)"
scalar scenarioPRJP1.node[2].udp 	sentPk:count 	2607
attr interpolationmode  none
attr source  sentPk
attr title  "packets sent, count"
scalar scenarioPRJP1.node[2].udp 	sentPk:sum(packetBytes) 	1355640
attr interpolationmode  none
attr source  sentPk
attr title  "packets sent, sum(packetBytes)"
scalar scenarioPRJP1.node[2].networkLayer.arp 	failedARPResolution:count 	268
attr title  "ARP failed resolutions, count"
scalar scenarioPRJP1.node[2].networkLayer.arp 	completedARPResolution:count 	1850
attr title  "ARP completed resolutions, count"
scalar scenarioPRJP1.node[2].networkLayer.arp 	initiatedARPResolution:count 	321
attr title  "ARP initiated resolutions, count"
scalar scenarioPRJP1.node[2].networkLayer.arp 	sentReply:count 	26
attr title  "ARP replies sent, count"
scalar scenarioPRJP1.node[2].networkLayer.arp 	sentReq:count 	904
attr title  "ARP request sent, count"
scalar scenarioPRJP1.node[2].mobility 	startTime 	0.1
scalar scenarioPRJP1.node[2].mobility 	totalTime 	949.9
scalar scenarioPRJP1.node[2].mobility 	stopTime 	950
scalar scenarioPRJP1.node[2].mobility 	minSpeed 	2.4756466042942e-13
scalar scenarioPRJP1.node[2].mobility 	maxSpeed 	18.187003985375
scalar scenarioPRJP1.node[2].mobility 	totalDistance 	9701.0769035528
scalar scenarioPRJP1.node[2].mobility 	totalCO2Emission 	2723.2885816567
scalar scenarioPRJP1.node[2].wlan.mgmt 	dataQueueLen:max 	8
attr interpolationmode  sample-hold
attr title  "data queue length, max"
scalar scenarioPRJP1.node[2].wlan.mgmt 	dataQueueLen:timeavg 	0
attr interpolationmode  sample-hold
attr title  "data queue length, timeavg"
scalar scenarioPRJP1.node[2].wlan.mgmt 	dropPkByQueue:count 	0
attr interpolationmode  none
attr source  dropPkByQueue
attr title  "packets dropped by queue, count"
scalar scenarioPRJP1.node[2].wlan.mgmt 	dropPkByQueue:sum(packetBytes) 	0
attr interpolationmode  none
attr source  dropPkByQueue
attr title  "packets dropped by queue, sum(packetBytes)"
scalar scenarioPRJP1.node[2].wlan.mac 	"number of received packets" 	13616
scalar scenarioPRJP1.node[2].wlan.mac 	"number of collisions" 	51709
scalar scenarioPRJP1.node[2].wlan.mac 	"number of internal collisions" 	0
scalar scenarioPRJP1.node[2].wlan.mac 	"number of retry for AC 0" 	67510
scalar scenarioPRJP1.node[2].wlan.mac 	"number of retry for AC 1" 	0
scalar scenarioPRJP1.node[2].wlan.mac 	"number of retry for AC 2" 	0
scalar scenarioPRJP1.node[2].wlan.mac 	"number of retry for AC 3" 	0
scalar scenarioPRJP1.node[2].wlan.mac 	"sent and received bits" 	11583232
scalar scenarioPRJP1.node[2].wlan.mac 	"sent packet within AC 0" 	4213
scalar scenarioPRJP1.node[2].wlan.mac 	"sent packet within AC 1" 	0
scalar scenarioPRJP1.node[2].wlan.mac 	"sent packet within AC 2" 	0
scalar scenarioPRJP1.node[2].wlan.mac 	"sent packet within AC 3" 	0
scalar scenarioPRJP1.node[2].wlan.mac 	"sent in TXOP " 	0
scalar scenarioPRJP1.node[2].wlan.mac 	"sentWithoutRetry AC 0" 	3543
scalar scenarioPRJP1.node[2].wlan.mac 	"sentWithoutRetry AC 1" 	0
scalar scenarioPRJP1.node[2].wlan.mac 	"sentWithoutRetry AC 2" 	0
scalar scenarioPRJP1.node[2].wlan.mac 	"sentWithoutRetry AC 3" 	0
scalar scenarioPRJP1.node[2].wlan.mac 	"numGivenUp AC 0" 	11040
scalar scenarioPRJP1.node[2].wlan.mac 	"numGivenUp AC 1" 	0
scalar scenarioPRJP1.node[2].wlan.mac 	"numGivenUp AC 2" 	0
scalar scenarioPRJP1.node[2].wlan.mac 	"numGivenUp AC 3" 	0
scalar scenarioPRJP1.node[2].wlan.mac 	"numDropped AC 0" 	0
scalar scenarioPRJP1.node[2].wlan.mac 	"numDropped AC 1" 	0
scalar scenarioPRJP1.node[2].wlan.mac 	"numDropped AC 2" 	0
scalar scenarioPRJP1.node[2].wlan.mac 	"numDropped AC 3" 	0
scalar scenarioPRJP1.node[2].wlan.mac 	rcvdPkFromLL:count 	262124
attr interpolationmode  none
attr source  packetReceivedFromLower
attr title  "packets received from lower layer, count"
scalar scenarioPRJP1.node[2].wlan.mac 	rcvdPkFromLL:sum(packetBytes) 	69103330
attr interpolationmode  none
attr source  packetReceivedFromLower
attr title  "packets received from lower layer, sum(packetBytes)"
scalar scenarioPRJP1.node[2].wlan.mac 	sentDownPk:count 	98731
attr interpolationmode  none
attr source  packetSentToLower
attr title  "packets sent to lower layer, count"
scalar scenarioPRJP1.node[2].wlan.mac 	sentDownPk:sum(packetBytes) 	27158068
attr interpolationmode  none
attr source  packetSentToLower
attr title  "packets sent to lower layer, sum(packetBytes)"
scalar scenarioPRJP1.node[2].wlan.mac 	rcvdPkFromHL:count 	17605
attr interpolationmode  none
attr source  packetReceivedFromUpper
attr title  "packets received from higher layer, count"
scalar scenarioPRJP1.node[2].wlan.mac 	rcvdPkFromHL:sum(packetBytes) 	5011596
attr interpolationmode  none
attr source  packetReceivedFromUpper
attr title  "packets received from higher layer, sum(packetBytes)"
scalar scenarioPRJP1.node[2].wlan.mac 	passedUpPk:count 	13977
attr interpolationmode  none
attr source  packetSentToUpper
attr title  "packets passed to higher layer, count"
scalar scenarioPRJP1.node[2].wlan.mac 	passedUpPk:sum(packetBytes) 	2814676
attr interpolationmode  none
attr source  packetSentToUpper
attr title  "packets passed to higher layer, sum(packetBytes)"
statistic scenarioPRJP1.node[2].wlan.radio 	radioChannel:histogram
field count 1
field mean 3
field stddev -nan
field sum 3
field sqrsum 9
field min 3
field max 3
attr interpolationmode  sample-hold
attr source  radioChannelChanged
attr title  "Radio channel, histogram"
bin	-INF	0
bin	2	0
bin	3	1
bin	4	0
scalar scenarioPRJP1.node[2].wlan.radio 	transmissionState:count 	394924
attr interpolationmode  sample-hold
attr source  transmissionStateChanged
attr title  "Radio transmission state, count"
scalar scenarioPRJP1.node[2].wlan.radio 	receptionState:count 	735862
attr interpolationmode  sample-hold
attr source  receptionStateChanged
attr title  "Radio reception state, count"
scalar scenarioPRJP1.node[2].wlan.radio 	radioMode:count 	197464
attr interpolationmode  sample-hold
attr source  radioModeChanged
attr title  "Radio mode, count"
statistic scenarioPRJP1.node[2].wlan.radio 	symbolErrorRate:histogram
field count 0
field mean -nan
field stddev -nan
field sum 0
field sqrsum 0
field min -nan
field max -nan
attr source  symbolErrorRate
attr title  "Symbol error rate, histogram"
bin	-INF	0
bin	-0.5	0
bin	-0.46666666666667	0
bin	-0.43333333333333	0
bin	-0.4	0
bin	-0.36666666666667	0
bin	-0.33333333333333	0
bin	-0.3	0
bin	-0.26666666666667	0
bin	-0.23333333333333	0
bin	-0.2	0
bin	-0.16666666666667	0
bin	-0.13333333333333	0
bin	-0.1	0
bin	-0.066666666666667	0
bin	-0.033333333333333	0
bin	-6.9388939039072e-18	0
bin	0.033333333333333	0
bin	0.066666666666667	0
bin	0.1	0
bin	0.13333333333333	0
bin	0.16666666666667	0
bin	0.2	0
bin	0.23333333333333	0
bin	0.26666666666667	0
bin	0.3	0
bin	0.33333333333333	0
bin	0.36666666666667	0
bin	0.4	0
bin	0.43333333333333	0
bin	0.46666666666667	0
bin	0.5	0
statistic scenarioPRJP1.node[2].wlan.radio 	bitErrorRate:histogram
field count 0
field mean -nan
field stddev -nan
field sum 0
field sqrsum 0
field min -nan
field max -nan
attr source  bitErrorRate
attr title  "Bit error rate, histogram"
bin	-INF	0
bin	-0.5	0
bin	-0.46666666666667	0
bin	-0.43333333333333	0
bin	-0.4	0
bin	-0.36666666666667	0
bin	-0.33333333333333	0
bin	-0.3	0
bin	-0.26666666666667	0
bin	-0.23333333333333	0
bin	-0.2	0
bin	-0.16666666666667	0
bin	-0.13333333333333	0
bin	-0.1	0
bin	-0.066666666666667	0
bin	-0.033333333333333	0
bin	-6.9388939039072e-18	0
bin	0.033333333333333	0
bin	0.066666666666667	0
bin	0.1	0
bin	0.13333333333333	0
bin	0.16666666666667	0
bin	0.2	0
bin	0.23333333333333	0
bin	0.26666666666667	0
bin	0.3	0
bin	0.33333333333333	0
bin	0.36666666666667	0
bin	0.4	0
bin	0.43333333333333	0
bin	0.46666666666667	0
bin	0.5	0
statistic scenarioPRJP1.node[2].wlan.radio 	packetErrorRate:histogram
field count 262124
field mean 0.19309710278155
field stddev 0.38740494443207
field sum 50615.384969512
field sqrsum 49113.783186725
field min 0
field max 1
attr source  packetErrorRate
attr title  "Packet error rate, histogram"
bin	-INF	0
bin	-0.5	0
bin	-0.43333333333333	0
bin	-0.36666666666667	0
bin	-0.3	0
bin	-0.23333333333333	0
bin	-0.16666666666667	0
bin	-0.1	0
bin	-0.033333333333333	205379
bin	0.033333333333333	2533
bin	0.1	1147
bin	0.16666666666667	778
bin	0.23333333333333	648
bin	0.3	552
bin	0.36666666666667	515
bin	0.43333333333333	470
bin	0.5	395
bin	0.56666666666667	385
bin	0.63333333333333	407
bin	0.7	405
bin	0.76666666666667	418
bin	0.83333333333333	492
bin	0.9	805
bin	0.96666666666667	46795
bin	1.0333333333333	0
bin	1.1	0
bin	1.1666666666667	0
bin	1.2333333333333	0
bin	1.3	0
bin	1.3666666666667	0
bin	1.4333333333333	0
bin	1.5	0
statistic scenarioPRJP1.node[2].wlan.radio 	minSNIR:histogram
field count 262124
field mean 6782.146482294
field stddev 48129.330758637
field sum 1777763364.5248
field sqrsum 6.1924728231388e+14
field min 7.4410084695627e-05
field max 6452152.7072048
attr source  minSNIR
attr title  "Min SNIR, histogram"
bin	-INF	0
bin	-110406.48671779	0
bin	-95685.544483369	0
bin	-80964.602248952	0
bin	-66243.660014536	0
bin	-51522.717780119	0
bin	-36801.775545702	0
bin	-22080.833311286	0
bin	-7359.891076869	242700
bin	7361.0511575476	8322
bin	22081.993391964	2456
bin	36802.935626381	1344
bin	51523.877860797	1023
bin	66244.820095214	743
bin	80965.762329631	660
bin	95686.704564047	515
bin	110407.64679846	478
bin	125128.58903288	401
bin	139849.5312673	323
bin	154570.47350171	297
bin	169291.41573613	284
bin	184012.35797055	218
bin	198733.30020496	204
bin	213454.24243938	202
bin	228175.1846738	176
bin	242896.12690821	163
bin	257617.06914263	137
bin	272338.01137705	145
bin	287058.95361146	123
bin	301779.89584588	97
bin	316500.8380803	95
bin	331221.78031471	1018
scalar scenarioPRJP1.node[2].lo0.lo 	droppedPkBitError:count 	0
attr interpolationmode  none
attr source  dropPkBitError
attr title  "packets dropped/bit error, count"
scalar scenarioPRJP1.node[2].lo0.lo 	droppedPkBitError:sum(packetBytes) 	0
attr interpolationmode  none
attr source  dropPkBitError
attr title  "packets dropped/bit error, sum(packetBytes)"
scalar scenarioPRJP1.node[2].lo0.lo 	rcvdPkFromHL:count 	439
attr interpolationmode  none
attr source  packetReceivedFromUpper
attr title  "packets received from higher layer, count"
scalar scenarioPRJP1.node[2].lo0.lo 	rcvdPkFromHL:sum(packetBytes) 	228280
attr interpolationmode  none
attr source  packetReceivedFromUpper
attr title  "packets received from higher layer, sum(packetBytes)"
scalar scenarioPRJP1.node[2].lo0.lo 	passedUpPk:count 	439
attr interpolationmode  none
attr source  packetSentToUpper
attr title  "packets passed to higher layer, count"
scalar scenarioPRJP1.node[2].lo0.lo 	passedUpPk:sum(packetBytes) 	228280
attr interpolationmode  none
attr source  packetSentToUpper
attr title  "packets passed to higher layer, sum(packetBytes)"
scalar scenarioPRJP1.node[15].app 	"Total sent" 	2615
scalar scenarioPRJP1.node[15].app 	"Total received" 	329
scalar scenarioPRJP1.node[15].app 	"Total deleted" 	4
scalar scenarioPRJP1.node[15].app 	dropPk:count 	4
attr interpolationmode  none
attr source  dropPk
attr title  "packets dropped, count"
scalar scenarioPRJP1.node[15].app 	dropPk:sum(packetBytes) 	2048
attr interpolationmode  none
attr source  dropPk
attr title  "packets dropped, sum(packetBytes)"
scalar scenarioPRJP1.node[15].app 	outOfOrderPk:count 	49
attr interpolationmode  none
attr source  outOfOrderPk
attr title  "packets received out of order, count"
scalar scenarioPRJP1.node[15].app 	outOfOrderPk:sum(packetBytes) 	25088
attr interpolationmode  none
attr source  outOfOrderPk
attr title  "packets received out of order, sum(packetBytes)"
scalar scenarioPRJP1.node[15].app 	rcvdPk:count 	329
attr interpolationmode  none
attr source  rcvdPk
attr title  "packets received, count"
scalar scenarioPRJP1.node[15].app 	rcvdPk:sum(packetBytes) 	168448
attr interpolationmode  none
attr source  rcvdPk
attr title  "packets received, sum(packetBytes)"
statistic scenarioPRJP1.node[15].app 	endToEndDelay:histogram
field count 329
field mean 1.0990739926626
field stddev 1.8272617910011
field sum 361.59534358598
field sqrsum 1492.5745321388
field min 0.000956038615
field max 13.604435710683
attr interpolationmode  none
attr source  messageAge(rcvdPk)
attr title  "delay, histogram"
attr unit  s
bin	-INF	0
bin	-6.800781747315	0
bin	-5.8938831936262	0
bin	-4.9869846399374	0
bin	-4.0800860862486	0
bin	-3.1731875325598	0
bin	-2.266288978871	0
bin	-1.3593904251822	0
bin	-0.4524918714934	169
bin	0.4544066821954	70
bin	1.3613052358842	43
bin	2.268203789573	24
bin	3.1751023432618	9
bin	4.0820008969506	3
bin	4.9888994506394	4
bin	5.8957980043282	0
bin	6.802696558017	1
bin	7.7095951117058	1
bin	8.6164936653946	0
bin	9.5233922190834	1
bin	10.430290772772	1
bin	11.337189326461	1
bin	12.24408788015	1
bin	13.150986433839	1
bin	14.057884987527	0
bin	14.964783541216	0
bin	15.871682094905	0
bin	16.778580648594	0
bin	17.685479202283	0
bin	18.592377755971	0
bin	19.49927630966	0
bin	20.406174863349	0
scalar scenarioPRJP1.node[15].app 	sentPk:count 	2615
attr interpolationmode  none
attr source  sentPk
attr title  "packets sent, count"
scalar scenarioPRJP1.node[15].app 	sentPk:sum(packetBytes) 	1338880
attr interpolationmode  none
attr source  sentPk
attr title  "packets sent, sum(packetBytes)"
scalar scenarioPRJP1.node[15].udp 	droppedPkBadChecksum:count 	0
attr interpolationmode  none
attr title  "packets dropped (checksum error), count"
scalar scenarioPRJP1.node[15].udp 	droppedPkWrongPort:count 	0
attr interpolationmode  none
attr title  "packets dropped (wrong port), count"
scalar scenarioPRJP1.node[15].udp 	passedUpPk:count 	382
attr interpolationmode  none
attr title  "packets passed up, count"
scalar scenarioPRJP1.node[15].udp 	rcvdPk:count 	382
attr interpolationmode  none
attr source  rcvdPk
attr title  "packets received, count"
scalar scenarioPRJP1.node[15].udp 	rcvdPk:sum(packetBytes) 	198640
attr interpolationmode  none
attr source  rcvdPk
attr title  "packets received, sum(packetBytes)"
scalar scenarioPRJP1.node[15].udp 	sentPk:count 	2615
attr interpolationmode  none
attr source  sentPk
attr title  "packets sent, count"
scalar scenarioPRJP1.node[15].udp 	sentPk:sum(packetBytes) 	1359800
attr interpolationmode  none
attr source  sentPk
attr title  "packets sent, sum(packetBytes)"
scalar scenarioPRJP1.node[15].networkLayer.arp 	failedARPResolution:count 	218
attr title  "ARP failed resolutions, count"
scalar scenarioPRJP1.node[15].networkLayer.arp 	completedARPResolution:count 	1481
attr title  "ARP completed resolutions, count"
scalar scenarioPRJP1.node[15].networkLayer.arp 	initiatedARPResolution:count 	263
attr title  "ARP initiated resolutions, count"
scalar scenarioPRJP1.node[15].networkLayer.arp 	sentReply:count 	42
attr title  "ARP replies sent, count"
scalar scenarioPRJP1.node[15].networkLayer.arp 	sentReq:count 	743
attr title  "ARP request sent, count"
scalar scenarioPRJP1.node[15].mobility 	startTime 	2.5
scalar scenarioPRJP1.node[15].mobility 	totalTime 	947.5
scalar scenarioPRJP1.node[15].mobility 	stopTime 	950
scalar scenarioPRJP1.node[15].mobility 	minSpeed 	2.4756176132259e-13
scalar scenarioPRJP1.node[15].mobility 	maxSpeed 	18.496858361157
scalar scenarioPRJP1.node[15].mobility 	totalDistance 	8871.1480370443
scalar scenarioPRJP1.node[15].mobility 	totalCO2Emission 	2576.5072413658
scalar scenarioPRJP1.node[15].wlan.mgmt 	dataQueueLen:max 	8
attr interpolationmode  sample-hold
attr title  "data queue length, max"
scalar scenarioPRJP1.node[15].wlan.mgmt 	dataQueueLen:timeavg 	0
attr interpolationmode  sample-hold
attr title  "data queue length, timeavg"
scalar scenarioPRJP1.node[15].wlan.mgmt 	dropPkByQueue:count 	0
attr interpolationmode  none
attr source  dropPkByQueue
attr title  "packets dropped by queue, count"
scalar scenarioPRJP1.node[15].wlan.mgmt 	dropPkByQueue:sum(packetBytes) 	0
attr interpolationmode  none
attr source  dropPkByQueue
attr title  "packets dropped by queue, sum(packetBytes)"
scalar scenarioPRJP1.node[15].wlan.mac 	"number of received packets" 	13120
scalar scenarioPRJP1.node[15].wlan.mac 	"number of collisions" 	45619
scalar scenarioPRJP1.node[15].wlan.mac 	"number of internal collisions" 	0
scalar scenarioPRJP1.node[15].wlan.mac 	"number of retry for AC 0" 	70373
scalar scenarioPRJP1.node[15].wlan.mac 	"number of retry for AC 1" 	0
scalar scenarioPRJP1.node[15].wlan.mac 	"number of retry for AC 2" 	0
scalar scenarioPRJP1.node[15].wlan.mac 	"number of retry for AC 3" 	0
scalar scenarioPRJP1.node[15].wlan.mac 	"sent and received bits" 	7522784
scalar scenarioPRJP1.node[15].wlan.mac 	"sent packet within AC 0" 	2484
scalar scenarioPRJP1.node[15].wlan.mac 	"sent packet within AC 1" 	0
scalar scenarioPRJP1.node[15].wlan.mac 	"sent packet within AC 2" 	0
scalar scenarioPRJP1.node[15].wlan.mac 	"sent packet within AC 3" 	0
scalar scenarioPRJP1.node[15].wlan.mac 	"sent in TXOP " 	0
scalar scenarioPRJP1.node[15].wlan.mac 	"sentWithoutRetry AC 0" 	2027
scalar scenarioPRJP1.node[15].wlan.mac 	"sentWithoutRetry AC 1" 	0
scalar scenarioPRJP1.node[15].wlan.mac 	"sentWithoutRetry AC 2" 	0
scalar scenarioPRJP1.node[15].wlan.mac 	"sentWithoutRetry AC 3" 	0
scalar scenarioPRJP1.node[15].wlan.mac 	"numGivenUp AC 0" 	11576
scalar scenarioPRJP1.node[15].wlan.mac 	"numGivenUp AC 1" 	0
scalar scenarioPRJP1.node[15].wlan.mac 	"numGivenUp AC 2" 	0
scalar scenarioPRJP1.node[15].wlan.mac 	"numGivenUp AC 3" 	0
scalar scenarioPRJP1.node[15].wlan.mac 	"numDropped AC 0" 	0
scalar scenarioPRJP1.node[15].wlan.mac 	"numDropped AC 1" 	0
scalar scenarioPRJP1.node[15].wlan.mac 	"numDropped AC 2" 	0
scalar scenarioPRJP1.node[15].wlan.mac 	"numDropped AC 3" 	0
scalar scenarioPRJP1.node[15].wlan.mac 	rcvdPkFromLL:count 	192488
attr interpolationmode  none
attr source  packetReceivedFromLower
attr title  "packets received from lower layer, count"
scalar scenarioPRJP1.node[15].wlan.mac 	rcvdPkFromLL:sum(packetBytes) 	50572392
attr interpolationmode  none
attr source  packetReceivedFromLower
attr title  "packets received from lower layer, sum(packetBytes)"
scalar scenarioPRJP1.node[15].wlan.mac 	sentDownPk:count 	99986
attr interpolationmode  none
attr source  packetSentToLower
attr title  "packets sent to lower layer, count"
scalar scenarioPRJP1.node[15].wlan.mac 	sentDownPk:sum(packetBytes) 	27494672
attr interpolationmode  none
attr source  packetSentToLower
attr title  "packets sent to lower layer, sum(packetBytes)"
scalar scenarioPRJP1.node[15].wlan.mac 	rcvdPkFromHL:count 	16493
attr interpolationmode  none
attr source  packetReceivedFromUpper
attr title  "packets received from higher layer, count"
scalar scenarioPRJP1.node[15].wlan.mac 	rcvdPkFromHL:sum(packetBytes) 	4646008
attr interpolationmode  none
attr source  packetReceivedFromUpper
attr title  "packets received from higher layer, sum(packetBytes)"
scalar scenarioPRJP1.node[15].wlan.mac 	passedUpPk:count 	11709
attr interpolationmode  none
attr source  packetSentToUpper
attr title  "packets passed to higher layer, count"
scalar scenarioPRJP1.node[15].wlan.mac 	passedUpPk:sum(packetBytes) 	2352956
attr interpolationmode  none
attr source  packetSentToUpper
attr title  "packets passed to higher layer, sum(packetBytes)"
statistic scenarioPRJP1.node[15].wlan.radio 	radioChannel:histogram
field count 1
field mean 3
field stddev -nan
field sum 3
field sqrsum 9
field min 3
field max 3
attr interpolationmode  sample-hold
[...]
attr interpolationmode  none
attr source  packetSentToUpper
attr title  "packets passed to higher layer, count"
scalar scenarioPRJP1.node[12].wlan.mac 	passedUpPk:sum(packetBytes) 	2442788
attr interpolationmode  none
attr source  packetSentToUpper
attr title  "packets passed to higher layer, sum(packetBytes)"
statistic scenarioPRJP1.node[12].wlan.radio 	radioChannel:histogram
field count 1
field mean 3
field stddev -nan
field sum 3
field sqrsum 9
field min 3
field max 3
attr interpolationmode  sample-hold
attr source  radioChannelChanged
attr title  "Radio channel, histogram"
bin	-INF	0
bin	2	0
bin	3	1
bin	4	0
scalar scenarioPRJP1.node[12].wlan.radio 	transmissionState:count 	393112
attr interpolationmode  sample-hold
attr source  transmissionStateChanged
attr title  "Radio transmission state, count"
scalar scenarioPRJP1.node[12].wlan.radio 	receptionState:count 	647362
attr interpolationmode  sample-hold
attr source  receptionStateChanged
attr title  "Radio reception state, count"
scalar scenarioPRJP1.node[12].wlan.radio 	radioMode:count 	196558
attr interpolationmode  sample-hold
attr source  radioModeChanged
attr title  "Radio mode, count"
statistic scenarioPRJP1.node[12].wlan.radio 	symbolErrorRate:histogram
field count 0
field mean -nan
field stddev -nan
field sum 0
field sqrsum 0
field min -nan
field max -nan
attr source  symbolErrorRate
attr title  "Symbol error rate, histogram"
bin	-INF	0
bin	-0.5	0
bin	-0.46666666666667	0
bin	-0.43333333333333	0
bin	-0.4	0
bin	-0.36666666666667	0
bin	-0.33333333333333	0
bin	-0.3	0
bin	-0.26666666666667	0
bin	-0.23333333333333	0
bin	-0.2	0
bin	-0.16666666666667	0
bin	-0.13333333333333	0
bin	-0.1	0
bin	-0.066666666666667	0
bin	-0.033333333333333	0
bin	-6.9388939039072e-18	0
bin	0.033333333333333	0
bin	0.066666666666667	0
bin	0.1	0
bin	0.13333333333333	0
bin	0.16666666666667	0
bin	0.2	0
bin	0.23333333333333	0
bin	0.26666666666667	0
bin	0.3	0
bin	0.33333333333333	0
bin	0.36666666666667	0
bin	0.4	0
bin	0.43333333333333	0
bin	0.46666666666667	0
bin	0.5	0
statistic scenarioPRJP1.node[12].wlan.radio 	bitErrorRate:histogram
field count 0
field mean -nan
field stddev -nan
field sum 0
field sqrsum 0
field min -nan
field max -nan
attr source  bitErrorRate
attr title  "Bit error rate, histogram"
bin	-INF	0
bin	-0.5	0
bin	-0.46666666666667	0
bin	-0.43333333333333	0
bin	-0.4	0
bin	-0.36666666666667	0
bin	-0.33333333333333	0
bin	-0.3	0
bin	-0.26666666666667	0
bin	-0.23333333333333	0
bin	-0.2	0
bin	-0.16666666666667	0
bin	-0.13333333333333	0
bin	-0.1	0
bin	-0.066666666666667	0
bin	-0.033333333333333	0
bin	-6.9388939039072e-18	0
bin	0.033333333333333	0
bin	0.066666666666667	0
bin	0.1	0
bin	0.13333333333333	0
bin	0.16666666666667	0
bin	0.2	0
bin	0.23333333333333	0
bin	0.26666666666667	0
bin	0.3	0
bin	0.33333333333333	0
bin	0.36666666666667	0
bin	0.4	0
bin	0.43333333333333	0
bin	0.46666666666667	0
bin	0.5	0
statistic scenarioPRJP1.node[12].wlan.radio 	packetErrorRate:histogram
field count 218672
field mean 0.22433475003743
field stddev 0.40928163746277
field sum 49055.728460185
field sqrsum 47634.802781447
field min 0
field max 1
attr source  packetErrorRate
attr title  "Packet error rate, histogram"
bin	-INF	0
bin	-0.5	0
bin	-0.43333333333333	0
bin	-0.36666666666667	0
bin	-0.3	0
bin	-0.23333333333333	0
bin	-0.16666666666667	0
bin	-0.1	0
bin	-0.033333333333333	163863
bin	0.033333333333333	2278
bin	0.1	1156
bin	0.16666666666667	777
bin	0.23333333333333	600
bin	0.3	528
bin	0.36666666666667	464
bin	0.43333333333333	407
bin	0.5	375
bin	0.56666666666667	369
bin	0.63333333333333	375
bin	0.7	385
bin	0.76666666666667	421
bin	0.83333333333333	513
bin	0.9	749
bin	0.96666666666667	45412
bin	1.0333333333333	0
bin	1.1	0
bin	1.1666666666667	0
bin	1.2333333333333	0
bin	1.3	0
bin	1.3666666666667	0
bin	1.4333333333333	0
bin	1.5	0
statistic scenarioPRJP1.node[12].wlan.radio 	minSNIR:histogram
field count 218672
field mean 5576.5324978728
field stddev 39941.339171296
field sum 1219431514.3748
field sqrsum 3.5564835817016e+14
field min 7.1350499937524e-05
field max 2582358.6407171
attr source  minSNIR
attr title  "Min SNIR, histogram"
bin	-INF	0
bin	-556997.5376982	0
bin	-482731.19928458	0
bin	-408464.86087096	0
bin	-334198.52245733	0
bin	-259932.18404371	0
bin	-185665.84563009	0
bin	-111399.50721647	0
bin	-37133.168802843	212682
bin	37133.169610779	2965
bin	111399.5080244	1234
bin	185665.84643802	693
bin	259932.18485165	375
bin	334198.52326527	234
bin	408464.86167889	160
bin	482731.20009251	107
bin	556997.53850614	74
bin	631263.87691976	34
bin	705530.21533338	33
bin	779796.553747	20
bin	854062.89216063	11
bin	928329.23057425	16
bin	1002595.5689879	11
bin	1076861.9074015	6
bin	1151128.2458151	1
bin	1225394.5842287	2
bin	1299660.9226424	5
bin	1373927.261056	2
bin	1448193.5994696	2
bin	1522459.9378832	1
bin	1596726.2762969	2
bin	1670992.6147105	2
scalar scenarioPRJP1.node[12].lo0.lo 	droppedPkBitError:count 	0
attr interpolationmode  none
attr source  dropPkBitError
attr title  "packets dropped/bit error, count"
scalar scenarioPRJP1.node[12].lo0.lo 	droppedPkBitError:sum(packetBytes) 	0
attr interpolationmode  none
attr source  dropPkBitError
attr title  "packets dropped/bit error, sum(packetBytes)"
scalar scenarioPRJP1.node[12].lo0.lo 	rcvdPkFromHL:count 	363
attr interpolationmode  none
attr source  packetReceivedFromUpper
attr title  "packets received from higher layer, count"
scalar scenarioPRJP1.node[12].lo0.lo 	rcvdPkFromHL:sum(packetBytes) 	188760
attr interpolationmode  none
attr source  packetReceivedFromUpper
attr title  "packets received from higher layer, sum(packetBytes)"
scalar scenarioPRJP1.node[12].lo0.lo 	passedUpPk:count 	363
attr interpolationmode  none
attr source  packetSentToUpper
attr title  "packets passed to higher layer, count"
scalar scenarioPRJP1.node[12].lo0.lo 	passedUpPk:sum(packetBytes) 	188760
attr interpolationmode  none
attr source  packetSentToUpper
attr title  "packets passed to higher layer, sum(packetBytes)"
scalar scenarioPRJP1.node[23].app 	"Total sent" 	2625
scalar scenarioPRJP1.node[23].app 	"Total received" 	307
scalar scenarioPRJP1.node[23].app 	"Total deleted" 	1
scalar scenarioPRJP1.node[23].app 	dropPk:count 	1
attr interpolationmode  none
attr source  dropPk
attr title  "packets dropped, count"
scalar scenarioPRJP1.node[23].app 	dropPk:sum(packetBytes) 	512
attr interpolationmode  none
attr source  dropPk
attr title  "packets dropped, sum(packetBytes)"
scalar scenarioPRJP1.node[23].app 	outOfOrderPk:count 	39
attr interpolationmode  none
attr source  outOfOrderPk
attr title  "packets received out of order, count"
scalar scenarioPRJP1.node[23].app 	outOfOrderPk:sum(packetBytes) 	19968
attr interpolationmode  none
attr source  outOfOrderPk
attr title  "packets received out of order, sum(packetBytes)"
scalar scenarioPRJP1.node[23].app 	rcvdPk:count 	307
attr interpolationmode  none
attr source  rcvdPk
attr title  "packets received, count"
scalar scenarioPRJP1.node[23].app 	rcvdPk:sum(packetBytes) 	157184
attr interpolationmode  none
attr source  rcvdPk
attr title  "packets received, sum(packetBytes)"
statistic scenarioPRJP1.node[23].app 	endToEndDelay:histogram
field count 307
field mean 1.3413173688706
field stddev 2.5665886713021
field sum 411.78443224328
field sqrsum 2568.0710979413
field min 0.00096433507
field max 19.668829403952
attr interpolationmode  none
attr source  messageAge(rcvdPk)
attr title  "delay, histogram"
attr unit  s
bin	-INF	0
bin	-3.862389647683	0
bin	-3.3472706191305	0
bin	-2.8321515905779	0
bin	-2.3170325620254	0
bin	-1.8019135334729	0
bin	-1.2867945049203	0
bin	-0.7716754763678	0
bin	-0.25655644781527	141
bin	0.25856258073727	35
bin	0.7736816092898	26
bin	1.2888006378423	33
bin	1.8039196663949	16
bin	2.3190386949474	22
bin	2.8341577234999	8
bin	3.3492767520525	5
bin	3.864395780605	5
bin	4.3795148091575	2
bin	4.8946338377101	2
bin	5.4097528662626	1
bin	5.9248718948151	0
bin	6.4399909233677	1
bin	6.9551099519202	1
bin	7.4702289804727	3
bin	7.9853480090253	0
bin	8.5004670375778	0
bin	9.0155860661303	0
bin	9.5307050946829	0
bin	10.045824123235	0
bin	10.560943151788	1
bin	11.07606218034	0
bin	11.591181208893	5
scalar scenarioPRJP1.node[23].app 	sentPk:count 	2625
attr interpolationmode  none
attr source  sentPk
attr title  "packets sent, count"
scalar scenarioPRJP1.node[23].app 	sentPk:sum(packetBytes) 	1344000
attr interpolationmode  none
attr source  sentPk
attr title  "packets sent, sum(packetBytes)"
scalar scenarioPRJP1.node[23].udp 	droppedPkBadChecksum:count 	0
attr interpolationmode  none
attr title  "packets dropped (checksum error), count"
scalar scenarioPRJP1.node[23].udp 	droppedPkWrongPort:count 	0
attr interpolationmode  none
attr title  "packets dropped (wrong port), count"
scalar scenarioPRJP1.node[23].udp 	passedUpPk:count 	347
attr interpolationmode  none
attr title  "packets passed up, count"
scalar scenarioPRJP1.node[23].udp 	rcvdPk:count 	347
attr interpolationmode  none
attr source  rcvdPk
attr title  "packets received, count"
scalar scenarioPRJP1.node[23].udp 	rcvdPk:sum(packetBytes) 	180440
attr interpolationmode  none
attr source  rcvdPk
attr title  "packets received, sum(packetBytes)"
scalar scenarioPRJP1.node[23].udp 	sentPk:count 	2625
attr interpolationmode  none
attr source  sentPk
attr title  "packets sent, count"
scalar scenarioPRJP1.node[23].udp 	sentPk:sum(packetBytes) 	1365000
attr interpolationmode  none
attr source  sentPk
attr title  "packets sent, sum(packetBytes)"
scalar scenarioPRJP1.node[23].networkLayer.arp 	failedARPResolution:count 	212
attr title  "ARP failed resolutions, count"
scalar scenarioPRJP1.node[23].networkLayer.arp 	completedARPResolution:count 	1009
attr title  "ARP completed resolutions, count"
scalar scenarioPRJP1.node[23].networkLayer.arp 	initiatedARPResolution:count 	254
attr title  "ARP initiated resolutions, count"
scalar scenarioPRJP1.node[23].networkLayer.arp 	sentReply:count 	30
attr title  "ARP replies sent, count"
scalar scenarioPRJP1.node[23].networkLayer.arp 	sentReq:count 	716
attr title  "ARP request sent, count"
scalar scenarioPRJP1.node[23].mobility 	startTime 	2.5
scalar scenarioPRJP1.node[23].mobility 	totalTime 	947.5
scalar scenarioPRJP1.node[23].mobility 	stopTime 	950
scalar scenarioPRJP1.node[23].mobility 	minSpeed 	2.476421470501e-13
scalar scenarioPRJP1.node[23].mobility 	maxSpeed 	17.949370406239
scalar scenarioPRJP1.node[23].mobility 	totalDistance 	10749.285566588
scalar scenarioPRJP1.node[23].mobility 	totalCO2Emission 	2759.6994434552
scalar scenarioPRJP1.node[23].wlan.mgmt 	dataQueueLen:max 	8
attr interpolationmode  sample-hold
attr title  "data queue length, max"
scalar scenarioPRJP1.node[23].wlan.mgmt 	dataQueueLen:timeavg 	0
attr interpolationmode  sample-hold
attr title  "data queue length, timeavg"
scalar scenarioPRJP1.node[23].wlan.mgmt 	dropPkByQueue:count 	0
attr interpolationmode  none
attr source  dropPkByQueue
attr title  "packets dropped by queue, count"
scalar scenarioPRJP1.node[23].wlan.mgmt 	dropPkByQueue:sum(packetBytes) 	0
attr interpolationmode  none
attr source  dropPkByQueue
attr title  "packets dropped by queue, sum(packetBytes)"
scalar scenarioPRJP1.node[23].wlan.mac 	"number of received packets" 	10220
scalar scenarioPRJP1.node[23].wlan.mac 	"number of collisions" 	33223
scalar scenarioPRJP1.node[23].wlan.mac 	"number of internal collisions" 	0
scalar scenarioPRJP1.node[23].wlan.mac 	"number of retry for AC 0" 	56644
scalar scenarioPRJP1.node[23].wlan.mac 	"number of retry for AC 1" 	0
scalar scenarioPRJP1.node[23].wlan.mac 	"number of retry for AC 2" 	0
scalar scenarioPRJP1.node[23].wlan.mac 	"number of retry for AC 3" 	0
scalar scenarioPRJP1.node[23].wlan.mac 	"sent and received bits" 	6987776
scalar scenarioPRJP1.node[23].wlan.mac 	"sent packet within AC 0" 	2032
scalar scenarioPRJP1.node[23].wlan.mac 	"sent packet within AC 1" 	0
scalar scenarioPRJP1.node[23].wlan.mac 	"sent packet within AC 2" 	0
scalar scenarioPRJP1.node[23].wlan.mac 	"sent packet within AC 3" 	0
scalar scenarioPRJP1.node[23].wlan.mac 	"sent in TXOP " 	0
scalar scenarioPRJP1.node[23].wlan.mac 	"sentWithoutRetry AC 0" 	1675
scalar scenarioPRJP1.node[23].wlan.mac 	"sentWithoutRetry AC 1" 	0
scalar scenarioPRJP1.node[23].wlan.mac 	"sentWithoutRetry AC 2" 	0
scalar scenarioPRJP1.node[23].wlan.mac 	"sentWithoutRetry AC 3" 	0
scalar scenarioPRJP1.node[23].wlan.mac 	"numGivenUp AC 0" 	9322
scalar scenarioPRJP1.node[23].wlan.mac 	"numGivenUp AC 1" 	0
scalar scenarioPRJP1.node[23].wlan.mac 	"numGivenUp AC 2" 	0
scalar scenarioPRJP1.node[23].wlan.mac 	"numGivenUp AC 3" 	0
scalar scenarioPRJP1.node[23].wlan.mac 	"numDropped AC 0" 	0
scalar scenarioPRJP1.node[23].wlan.mac 	"numDropped AC 1" 	0
scalar scenarioPRJP1.node[23].wlan.mac 	"numDropped AC 2" 	0
scalar scenarioPRJP1.node[23].wlan.mac 	"numDropped AC 3" 	0
scalar scenarioPRJP1.node[23].wlan.mac 	rcvdPkFromLL:count 	150936
attr interpolationmode  none
attr source  packetReceivedFromLower
attr title  "packets received from lower layer, count"
scalar scenarioPRJP1.node[23].wlan.mac 	rcvdPkFromLL:sum(packetBytes) 	39635788
attr interpolationmode  none
attr source  packetReceivedFromLower
attr title  "packets received from lower layer, sum(packetBytes)"
scalar scenarioPRJP1.node[23].wlan.mac 	sentDownPk:count 	81332
attr interpolationmode  none
attr source  packetSentToLower
attr title  "packets sent to lower layer, count"
scalar scenarioPRJP1.node[23].wlan.mac 	sentDownPk:sum(packetBytes) 	22738168
attr interpolationmode  none
attr source  packetSentToLower
attr title  "packets sent to lower layer, sum(packetBytes)"
scalar scenarioPRJP1.node[23].wlan.mac 	rcvdPkFromHL:count 	14468
attr interpolationmode  none
attr source  packetReceivedFromUpper
attr title  "packets received from higher layer, count"
scalar scenarioPRJP1.node[23].wlan.mac 	rcvdPkFromHL:sum(packetBytes) 	3931504
attr interpolationmode  none
attr source  packetReceivedFromUpper
attr title  "packets received from higher layer, sum(packetBytes)"
scalar scenarioPRJP1.node[23].wlan.mac 	passedUpPk:count 	10092
attr interpolationmode  none
attr source  packetSentToUpper
attr title  "packets passed to higher layer, count"
scalar scenarioPRJP1.node[23].wlan.mac 	passedUpPk:sum(packetBytes) 	1935948
attr interpolationmode  none
attr source  packetSentToUpper
attr title  "packets passed to higher layer, sum(packetBytes)"
statistic scenarioPRJP1.node[23].wlan.radio 	radioChannel:histogram
field count 1
field mean 3
field stddev -nan
field sum 3
field sqrsum 9
field min 3
field max 3
attr interpolationmode  sample-hold
attr source  radioChannelChanged
attr title  "Radio channel, histogram"
bin	-INF	0
bin	2	0
bin	3	1
bin	4	0
scalar scenarioPRJP1.node[23].wlan.radio 	transmissionState:count 	325326
attr interpolationmode  sample-hold
attr source  transmissionStateChanged
attr title  "Radio transmission state, count"
scalar scenarioPRJP1.node[23].wlan.radio 	receptionState:count 	471853
attr interpolationmode  sample-hold
attr source  receptionStateChanged
attr title  "Radio reception state, count"
scalar scenarioPRJP1.node[23].wlan.radio 	radioMode:count 	162665
attr interpolationmode  sample-hold
attr source  radioModeChanged
attr title  "Radio mode, count"
statistic scenarioPRJP1.node[23].wlan.radio 	symbolErrorRate:histogram
field count 0
field mean -nan
field stddev -nan
field sum 0
field sqrsum 0
field min -nan
field max -nan
attr source  symbolErrorRate
attr title  "Symbol error rate, histogram"
bin	-INF	0
bin	-0.5	0
bin	-0.46666666666667	0
bin	-0.43333333333333	0
bin	-0.4	0
bin	-0.36666666666667	0
bin	-0.33333333333333	0
bin	-0.3	0
bin	-0.26666666666667	0
bin	-0.23333333333333	0
bin	-0.2	0
bin	-0.16666666666667	0
bin	-0.13333333333333	0
bin	-0.1	0
bin	-0.066666666666667	0
bin	-0.033333333333333	0
bin	-6.9388939039072e-18	0
bin	0.033333333333333	0
bin	0.066666666666667	0
bin	0.1	0
bin	0.13333333333333	0
bin	0.16666666666667	0
bin	0.2	0
bin	0.23333333333333	0
bin	0.26666666666667	0
bin	0.3	0
bin	0.33333333333333	0
bin	0.36666666666667	0
bin	0.4	0
bin	0.43333333333333	0
bin	0.46666666666667	0
bin	0.5	0
statistic scenarioPRJP1.node[23].wlan.radio 	bitErrorRate:histogram
field count 0
field mean -nan
field stddev -nan
field sum 0
field sqrsum 0
field min -nan
field max -nan
attr source  bitErrorRate
attr title  "Bit error rate, histogram"
bin	-INF	0
bin	-0.5	0
bin	-0.46666666666667	0
bin	-0.43333333333333	0
bin	-0.4	0
bin	-0.36666666666667	0
bin	-0.33333333333333	0
bin	-0.3	0
bin	-0.26666666666667	0
bin	-0.23333333333333	0
bin	-0.2	0
bin	-0.16666666666667	0
bin	-0.13333333333333	0
bin	-0.1	0
bin	-0.066666666666667	0
bin	-0.033333333333333	0
bin	-6.9388939039072e-18	0
bin	0.033333333333333	0
bin	0.066666666666667	0
bin	0.1	0
bin	0.13333333333333	0
bin	0.16666666666667	0
bin	0.2	0
bin	0.23333333333333	0
bin	0.26666666666667	0
bin	0.3	0
bin	0.33333333333333	0
bin	0.36666666666667	0
bin	0.4	0
bin	0.43333333333333	0
bin	0.46666666666667	0
bin	0.5	0
statistic scenarioPRJP1.node[23].wlan.radio 	packetErrorRate:histogram
field count 150936
field mean 0.21535857334485
field stddev 0.40226370643465
field sum 32505.361626378
field sqrsum 31424.019776793
field min 0
field max 1
attr source  packetErrorRate
attr title  "Packet error rate, histogram"
bin	-INF	0
bin	-0.5	0
bin	-0.43333333333333	0
bin	-0.36666666666667	0
bin	-0.3	0
bin	-0.23333333333333	0
bin	-0.16666666666667	0
bin	-0.1	0
bin	-0.033333333333333	113975
bin	0.033333333333333	1824
bin	0.1	849
bin	0.16666666666667	644
bin	0.23333333333333	492
bin	0.3	369
bin	0.36666666666667	306
bin	0.43333333333333	304
bin	0.5	302
bin	0.56666666666667	280
bin	0.63333333333333	288
bin	0.7	279
bin	0.76666666666667	313
bin	0.83333333333333	387
bin	0.9	623
bin	0.96666666666667	29701
bin	1.0333333333333	0
bin	1.1	0
bin	1.1666666666667	0
bin	1.2333333333333	0
bin	1.3	0
bin	1.3666666666667	0
bin	1.4333333333333	0
bin	1.5	0
statistic scenarioPRJP1.node[23].wlan.radio 	minSNIR:histogram
field count 150936
field mean 2679.5641479269
field stddev 25681.379287575
field sum 404442694.23149
field sqrsum 1.0063038004157e+14
field min 0.00013897896641868
field max 1761393.0768952
attr source  minSNIR
attr title  "Min SNIR, histogram"
bin	-INF	0
bin	-406745.23080428	0
bin	-352512.53333021	0
bin	-298279.83585615	0
bin	-244047.13838208	0
bin	-189814.44090802	0
bin	-135581.74343395	0
bin	-81349.045959884	0
bin	-27116.348485818	148403
bin	27116.348988248	1422
bin	81349.046462314	401
bin	135581.74393638	219
bin	189814.44141045	142
bin	244047.13888451	96
bin	298279.83635858	70
bin	352512.53383264	58
bin	406745.23130671	29
bin	460977.92878078	21
bin	515210.62625484	24
bin	569443.32372891	6
bin	623676.02120297	11
bin	677908.71867704	7
bin	732141.41615111	3
bin	786374.11362517	5
bin	840606.81109924	5
bin	894839.5085733	2
bin	949072.20604737	3
bin	1003304.9035214	1
bin	1057537.6009955	1
bin	1111770.2984696	1
bin	1166002.9959436	0
bin	1220235.6934177	6
scalar scenarioPRJP1.node[23].lo0.lo 	droppedPkBitError:count 	0
attr interpolationmode  none
attr source  dropPkBitError
attr title  "packets dropped/bit error, count"
scalar scenarioPRJP1.node[23].lo0.lo 	droppedPkBitError:sum(packetBytes) 	0
attr interpolationmode  none
attr source  dropPkBitError
attr title  "packets dropped/bit error, sum(packetBytes)"
scalar scenarioPRJP1.node[23].lo0.lo 	rcvdPkFromHL:count 	347
attr interpolationmode  none
attr source  packetReceivedFromUpper
attr title  "packets received from higher layer, count"
scalar scenarioPRJP1.node[23].lo0.lo 	rcvdPkFromHL:sum(packetBytes) 	180440
attr interpolationmode  none
attr source  packetReceivedFromUpper
attr title  "packets received from higher layer, sum(packetBytes)"
scalar scenarioPRJP1.node[23].lo0.lo 	passedUpPk:count 	347
attr interpolationmode  none
attr source  packetSentToUpper
attr title  "packets passed to higher layer, count"
scalar scenarioPRJP1.node[23].lo0.lo 	passedUpPk:sum(packetBytes) 	180440
attr interpolationmode  none
attr source  packetSentToUpper
attr title  "packets passed to higher layer, sum(packetBytes)"
