version 2
run DSRUU-LNS-25n-2-20150706-15:09:18-7142
attr configname DSRUU-LNS-25n
attr datetime 20150706-15:09:18
attr experiment DSRUU-LNS-25n
attr inifile omnetpp.ini
attr iterationvars ""
attr iterationvars2 $repetition=2
attr measurement ""
attr network Prj_Part1_propag.scenarioPRJP1
attr processid 7142
attr repetition 2
attr replication #2
attr resultdir results
attr runnumber 2
attr seedset 2

scalar scenarioPRJP1.node[6].app 	"Total sent" 	4981
scalar scenarioPRJP1.node[6].app 	"Total received" 	2719
scalar scenarioPRJP1.node[6].app 	"Total deleted" 	0
scalar scenarioPRJP1.node[6].app 	dropPk:count 	0
attr interpolationmode  none
attr source  dropPk
attr title  "packets dropped, count"
scalar scenarioPRJP1.node[6].app 	dropPk:sum(packetBytes) 	0
attr interpolationmode  none
attr source  dropPk
attr title  "packets dropped, sum(packetBytes)"
scalar scenarioPRJP1.node[6].app 	outOfOrderPk:count 	4596
attr interpolationmode  none
attr source  outOfOrderPk
attr title  "packets received out of order, count"
scalar scenarioPRJP1.node[6].app 	outOfOrderPk:sum(packetBytes) 	2353152
attr interpolationmode  none
attr source  outOfOrderPk
attr title  "packets received out of order, sum(packetBytes)"
scalar scenarioPRJP1.node[6].app 	rcvdPk:count 	2719
attr interpolationmode  none
attr source  rcvdPk
attr title  "packets received, count"
scalar scenarioPRJP1.node[6].app 	rcvdPk:sum(packetBytes) 	1392128
attr interpolationmode  none
attr source  rcvdPk
attr title  "packets received, sum(packetBytes)"
statistic scenarioPRJP1.node[6].app 	endToEndDelay:histogram
field count 2719
field mean 3.1611624814969
field stddev 2.5687707777741
field sum 8595.2007871901
field sqrsum 45105.77568257
field min 0.001202011748
field max 19.176517071381
attr interpolationmode  none
attr source  messageAge(rcvdPk)
attr title  "delay, histogram"
attr unit  s
bin	-INF	0
bin	-4.8104310780695	0
bin	-4.1639642875438	0
bin	-3.5174974970182	0
bin	-2.8710307064925	0
bin	-2.2245639159668	0
bin	-1.5780971254412	0
bin	-0.9316303349155	0
bin	-0.28516354438983	164
bin	0.36130324613583	319
bin	1.0077700366615	375
bin	1.6542368271872	364
bin	2.3007036177128	321
bin	2.9471704082385	269
bin	3.5936371987642	206
bin	4.2401039892898	207
bin	4.8865707798155	113
bin	5.5330375703412	86
bin	6.1795043608668	59
bin	6.8259711513925	59
bin	7.4724379419182	45
bin	8.1189047324438	34
bin	8.7653715229695	13
bin	9.4118383134952	17
bin	10.058305104021	12
bin	10.704771894547	15
bin	11.351238685072	9
bin	11.997705475598	5
bin	12.644172266123	7
bin	13.290639056649	5
bin	13.937105847175	3
bin	14.5835726377	12
scalar scenarioPRJP1.node[6].app 	sentPk:count 	4981
attr interpolationmode  none
attr source  sentPk
attr title  "packets sent, count"
scalar scenarioPRJP1.node[6].app 	sentPk:sum(packetBytes) 	2550272
attr interpolationmode  none
attr source  sentPk
attr title  "packets sent, sum(packetBytes)"
scalar scenarioPRJP1.node[6].udp 	droppedPkBadChecksum:count 	0
attr interpolationmode  none
attr title  "packets dropped (checksum error), count"
scalar scenarioPRJP1.node[6].udp 	droppedPkWrongPort:count 	36
attr interpolationmode  none
attr title  "packets dropped (wrong port), count"
scalar scenarioPRJP1.node[6].udp 	passedUpPk:count 	7315
attr interpolationmode  none
attr title  "packets passed up, count"
scalar scenarioPRJP1.node[6].udp 	rcvdPk:count 	7351
attr interpolationmode  none
attr source  rcvdPk
attr title  "packets received, count"
scalar scenarioPRJP1.node[6].udp 	rcvdPk:sum(packetBytes) 	3822520
attr interpolationmode  none
attr source  rcvdPk
attr title  "packets received, sum(packetBytes)"
scalar scenarioPRJP1.node[6].udp 	sentPk:count 	4981
attr interpolationmode  none
attr source  sentPk
attr title  "packets sent, count"
scalar scenarioPRJP1.node[6].udp 	sentPk:sum(packetBytes) 	2590120
attr interpolationmode  none
attr source  sentPk
attr title  "packets sent, sum(packetBytes)"
scalar scenarioPRJP1.node[6].networkLayer.arp 	failedARPResolution:count 	110
attr title  "ARP failed resolutions, count"
scalar scenarioPRJP1.node[6].networkLayer.arp 	completedARPResolution:count 	2689
attr title  "ARP completed resolutions, count"
scalar scenarioPRJP1.node[6].networkLayer.arp 	initiatedARPResolution:count 	190
attr title  "ARP initiated resolutions, count"
scalar scenarioPRJP1.node[6].networkLayer.arp 	sentReply:count 	57
attr title  "ARP replies sent, count"
scalar scenarioPRJP1.node[6].networkLayer.arp 	sentReq:count 	473
attr title  "ARP request sent, count"
scalar scenarioPRJP1.node[6].mobility 	startTime 	0.1
scalar scenarioPRJP1.node[6].mobility 	totalTime 	1831.2
scalar scenarioPRJP1.node[6].mobility 	stopTime 	1831.4
scalar scenarioPRJP1.node[6].mobility 	minSpeed 	2.4755178996483e-13
scalar scenarioPRJP1.node[6].mobility 	maxSpeed 	17.674039536409
scalar scenarioPRJP1.node[6].mobility 	totalDistance 	19781.677615435
scalar scenarioPRJP1.node[6].mobility 	totalCO2Emission 	5075.4167995786
scalar scenarioPRJP1.node[6].wlan.mgmt 	dataQueueLen:max 	100
attr interpolationmode  sample-hold
attr title  "data queue length, max"
scalar scenarioPRJP1.node[6].wlan.mgmt 	dataQueueLen:timeavg 	21.064885496633
attr interpolationmode  sample-hold
attr title  "data queue length, timeavg"
scalar scenarioPRJP1.node[6].wlan.mgmt 	dropPkByQueue:count 	1803
attr interpolationmode  none
attr source  dropPkByQueue
attr title  "packets dropped by queue, count"
scalar scenarioPRJP1.node[6].wlan.mgmt 	dropPkByQueue:sum(packetBytes) 	561284
attr interpolationmode  none
attr source  dropPkByQueue
attr title  "packets dropped by queue, sum(packetBytes)"
scalar scenarioPRJP1.node[6].wlan.mac 	"number of received packets" 	54508
scalar scenarioPRJP1.node[6].wlan.mac 	"number of collisions" 	946200
scalar scenarioPRJP1.node[6].wlan.mac 	"number of internal collisions" 	25
scalar scenarioPRJP1.node[6].wlan.mac 	"number of retry for AC 0" 	99443
scalar scenarioPRJP1.node[6].wlan.mac 	"number of retry for AC 1" 	110
scalar scenarioPRJP1.node[6].wlan.mac 	"number of retry for AC 2" 	0
scalar scenarioPRJP1.node[6].wlan.mac 	"number of retry for AC 3" 	0
scalar scenarioPRJP1.node[6].wlan.mac 	"sent and received bits" 	98980128
scalar scenarioPRJP1.node[6].wlan.mac 	"sent packet within AC 0" 	47410
scalar scenarioPRJP1.node[6].wlan.mac 	"sent packet within AC 1" 	105
scalar scenarioPRJP1.node[6].wlan.mac 	"sent packet within AC 2" 	0
scalar scenarioPRJP1.node[6].wlan.mac 	"sent packet within AC 3" 	0
scalar scenarioPRJP1.node[6].wlan.mac 	"sent in TXOP " 	0
scalar scenarioPRJP1.node[6].wlan.mac 	"sentWithoutRetry AC 0" 	24497
scalar scenarioPRJP1.node[6].wlan.mac 	"sentWithoutRetry AC 1" 	59
scalar scenarioPRJP1.node[6].wlan.mac 	"sentWithoutRetry AC 2" 	0
scalar scenarioPRJP1.node[6].wlan.mac 	"sentWithoutRetry AC 3" 	0
scalar scenarioPRJP1.node[6].wlan.mac 	"numGivenUp AC 0" 	7834
scalar scenarioPRJP1.node[6].wlan.mac 	"numGivenUp AC 1" 	4
scalar scenarioPRJP1.node[6].wlan.mac 	"numGivenUp AC 2" 	0
scalar scenarioPRJP1.node[6].wlan.mac 	"numGivenUp AC 3" 	0
scalar scenarioPRJP1.node[6].wlan.mac 	"numDropped AC 0" 	31400
scalar scenarioPRJP1.node[6].wlan.mac 	"numDropped AC 1" 	86
scalar scenarioPRJP1.node[6].wlan.mac 	"numDropped AC 2" 	0
scalar scenarioPRJP1.node[6].wlan.mac 	"numDropped AC 3" 	0
scalar scenarioPRJP1.node[6].wlan.mac 	rcvdPkFromLL:count 	3505546
attr interpolationmode  none
attr source  packetReceivedFromLower
attr title  "packets received from lower layer, count"
scalar scenarioPRJP1.node[6].wlan.mac 	rcvdPkFromLL:sum(packetBytes) 	703874372
attr interpolationmode  none
attr source  packetReceivedFromLower
attr title  "packets received from lower layer, sum(packetBytes)"
scalar scenarioPRJP1.node[6].wlan.mac 	sentDownPk:count 	212229
attr interpolationmode  none
attr source  packetSentToLower
attr title  "packets sent to lower layer, count"
scalar scenarioPRJP1.node[6].wlan.mac 	sentDownPk:sum(packetBytes) 	48075728
attr interpolationmode  none
attr source  packetSentToLower
attr title  "packets sent to lower layer, sum(packetBytes)"
scalar scenarioPRJP1.node[6].wlan.mac 	rcvdPkFromHL:count 	89679
attr interpolationmode  none
attr source  packetReceivedFromUpper
attr title  "packets received from higher layer, count"
scalar scenarioPRJP1.node[6].wlan.mac 	rcvdPkFromHL:sum(packetBytes) 	23798152
attr interpolationmode  none
attr source  packetReceivedFromUpper
attr title  "packets received from higher layer, sum(packetBytes)"
scalar scenarioPRJP1.node[6].wlan.mac 	passedUpPk:count 	75740
attr interpolationmode  none
attr source  packetSentToUpper
attr title  "packets passed to higher layer, count"
scalar scenarioPRJP1.node[6].wlan.mac 	passedUpPk:sum(packetBytes) 	14894804
attr interpolationmode  none
attr source  packetSentToUpper
attr title  "packets passed to higher layer, sum(packetBytes)"
statistic scenarioPRJP1.node[6].wlan.radio 	radioChannel:histogram
field count 1
field mean 3
field stddev -nan
field sum 3
field sqrsum 9
field min 3
field max 3
attr interpolationmode  sample-hold
attr source  radioChannelChanged
attr title  "Radio channel, histogram"
bin	-INF	0
bin	2	0
bin	3	1
bin	4	0
scalar scenarioPRJP1.node[6].wlan.radio 	transmissionState:count 	848916
attr interpolationmode  sample-hold
attr source  transmissionStateChanged
attr title  "Radio transmission state, count"
scalar scenarioPRJP1.node[6].wlan.radio 	receptionState:count 	7990985
attr interpolationmode  sample-hold
attr source  receptionStateChanged
attr title  "Radio reception state, count"
scalar scenarioPRJP1.node[6].wlan.radio 	radioMode:count 	424460
attr interpolationmode  sample-hold
attr source  radioModeChanged
attr title  "Radio mode, count"
statistic scenarioPRJP1.node[6].wlan.radio 	symbolErrorRate:histogram
field count 0
field mean -nan
field stddev -nan
field sum 0
field sqrsum 0
field min -nan
field max -nan
attr source  symbolErrorRate
attr title  "Symbol error rate, histogram"
bin	-INF	0
bin	-0.5	0
bin	-0.46666666666667	0
bin	-0.43333333333333	0
bin	-0.4	0
bin	-0.36666666666667	0
bin	-0.33333333333333	0
bin	-0.3	0
bin	-0.26666666666667	0
bin	-0.23333333333333	0
bin	-0.2	0
bin	-0.16666666666667	0
bin	-0.13333333333333	0
bin	-0.1	0
bin	-0.066666666666667	0
bin	-0.033333333333333	0
bin	0	0
bin	0.033333333333333	0
bin	0.066666666666667	0
bin	0.1	0
bin	0.13333333333333	0
bin	0.16666666666667	0
bin	0.2	0
bin	0.23333333333333	0
bin	0.26666666666667	0
bin	0.3	0
bin	0.33333333333333	0
bin	0.36666666666667	0
bin	0.4	0
bin	0.43333333333333	0
bin	0.46666666666667	0
bin	0.5	0
statistic scenarioPRJP1.node[6].wlan.radio 	bitErrorRate:histogram
field count 0
field mean -nan
field stddev -nan
field sum 0
field sqrsum 0
field min -nan
field max -nan
attr source  bitErrorRate
attr title  "Bit error rate, histogram"
bin	-INF	0
bin	-0.5	0
bin	-0.46666666666667	0
bin	-0.43333333333333	0
bin	-0.4	0
bin	-0.36666666666667	0
bin	-0.33333333333333	0
bin	-0.3	0
bin	-0.26666666666667	0
bin	-0.23333333333333	0
bin	-0.2	0
bin	-0.16666666666667	0
bin	-0.13333333333333	0
bin	-0.1	0
bin	-0.066666666666667	0
bin	-0.033333333333333	0
bin	0	0
bin	0.033333333333333	0
bin	0.066666666666667	0
bin	0.1	0
bin	0.13333333333333	0
bin	0.16666666666667	0
bin	0.2	0
bin	0.23333333333333	0
bin	0.26666666666667	0
bin	0.3	0
bin	0.33333333333333	0
bin	0.36666666666667	0
bin	0.4	0
bin	0.43333333333333	0
bin	0.46666666666667	0
bin	0.5	0
statistic scenarioPRJP1.node[6].wlan.radio 	packetErrorRate:histogram
field count 3505546
field mean 0.265296529484
field stddev 0.43733179954187
field sum 930009.18774652
field sqrsum 917195.60173978
field min 0
field max 1
attr source  packetErrorRate
attr title  "Packet error rate, histogram"
bin	-INF	0
bin	-0.5	0
bin	-0.43333333333333	0
bin	-0.36666666666667	0
bin	-0.3	0
bin	-0.23333333333333	0
bin	-0.16666666666667	0
bin	-0.1	0
bin	-0.033333333333333	2524130
bin	0.033333333333333	20289
bin	0.1	9976
bin	0.16666666666667	6963
bin	0.23333333333333	5422
bin	0.3	4699
bin	0.36666666666667	4122
bin	0.43333333333333	3647
bin	0.5	3559
bin	0.56666666666667	3485
bin	0.63333333333333	3356
bin	0.7	3542
bin	0.76666666666667	3948
bin	0.83333333333333	4671
bin	0.9	7231
bin	0.96666666666667	896506
bin	1.0333333333333	0
bin	1.1	0
bin	1.1666666666667	0
bin	1.2333333333333	0
bin	1.3	0
bin	1.3666666666667	0
bin	1.4333333333333	0
bin	1.5	0
statistic scenarioPRJP1.node[6].wlan.radio 	minSNIR:histogram
field count 3505546
field mean 48998.020808338
field stddev 862750.67011534
field sum 171764815852.59
field sqrsum 2.6177290099626e+18
field min 3.3480501164043e-06
field max 165067108.48711
attr source  minSNIR
attr title  "Min SNIR, histogram"
bin	-INF	0
bin	-3370.1940098549	0
bin	-2920.8343729462	0
bin	-2471.4747360375	0
bin	-2022.1150991287	0
bin	-1572.75546222	0
bin	-1123.3958253113	0
bin	-674.0361884026	0
bin	-224.67655149389	1369266
bin	224.68308541483	462727
bin	674.04272232354	418254
bin	1123.4023592323	273393
bin	1572.761996141	186204
bin	2022.1216330497	132433
bin	2471.4812699584	98676
bin	2920.8409068671	75287
bin	3370.2005437758	58944
bin	3819.5601806845	47154
bin	4268.9198175933	38359
bin	4718.279454502	31338
bin	5167.6390914107	25716
bin	5616.9987283194	22071
bin	6066.3583652281	18586
bin	6515.7180021368	15899
bin	6965.0776390456	13630
bin	7414.4372759543	11917
bin	7863.796912863	10324
bin	8313.1565497717	9221
bin	8762.5161866804	7968
bin	9211.8758235891	7205
bin	9661.2354604978	6253
bin	10110.595097407	164721
scalar scenarioPRJP1.node[6].lo0.lo 	droppedPkBitError:count 	0
attr interpolationmode  none
attr source  dropPkBitError
attr title  "packets dropped/bit error, count"
scalar scenarioPRJP1.node[6].lo0.lo 	droppedPkBitError:sum(packetBytes) 	0
attr interpolationmode  none
attr source  dropPkBitError
attr title  "packets dropped/bit error, sum(packetBytes)"
scalar scenarioPRJP1.node[6].lo0.lo 	rcvdPkFromHL:count 	7395
attr interpolationmode  none
attr source  packetReceivedFromUpper
attr title  "packets received from higher layer, count"
scalar scenarioPRJP1.node[6].lo0.lo 	rcvdPkFromHL:sum(packetBytes) 	3825076
attr interpolationmode  none
attr source  packetReceivedFromUpper
attr title  "packets received from higher layer, sum(packetBytes)"
scalar scenarioPRJP1.node[6].lo0.lo 	passedUpPk:count 	7395
attr interpolationmode  none
attr source  packetSentToUpper
attr title  "packets passed to higher layer, count"
scalar scenarioPRJP1.node[6].lo0.lo 	passedUpPk:sum(packetBytes) 	3825076
attr interpolationmode  none
attr source  packetSentToUpper
attr title  "packets passed to higher layer, sum(packetBytes)"
scalar scenarioPRJP1.node[13].app 	"Total sent" 	5019
scalar scenarioPRJP1.node[13].app 	"Total received" 	2743
scalar scenarioPRJP1.node[13].app 	"Total deleted" 	0
scalar scenarioPRJP1.node[13].app 	dropPk:count 	0
attr interpolationmode  none
attr source  dropPk
attr title  "packets dropped, count"
scalar scenarioPRJP1.node[13].app 	dropPk:sum(packetBytes) 	0
attr interpolationmode  none
attr source  dropPk
attr title  "packets dropped, sum(packetBytes)"
scalar scenarioPRJP1.node[13].app 	outOfOrderPk:count 	4721
attr interpolationmode  none
attr source  outOfOrderPk
attr title  "packets received out of order, count"
scalar scenarioPRJP1.node[13].app 	outOfOrderPk:sum(packetBytes) 	2417152
attr interpolationmode  none
attr source  outOfOrderPk
attr title  "packets received out of order, sum(packetBytes)"
scalar scenarioPRJP1.node[13].app 	rcvdPk:count 	2743
attr interpolationmode  none
attr source  rcvdPk
attr title  "packets received, count"
scalar scenarioPRJP1.node[13].app 	rcvdPk:sum(packetBytes) 	1404416
attr interpolationmode  none
attr source  rcvdPk
attr title  "packets received, sum(packetBytes)"
statistic scenarioPRJP1.node[13].app 	endToEndDelay:histogram
field count 2743
field mean 3.1588814507129
field stddev 2.5871218912694
field sum 8664.8118193055
field sqrsum 45723.866853265
field min 0.001897880395
field max 19.584920040162
attr interpolationmode  none
attr source  messageAge(rcvdPk)
attr title  "delay, histogram"
attr unit  s
bin	-INF	0
bin	-2.334308417072	0
bin	-2.0090898611899	0
bin	-1.6838713053077	0
bin	-1.3586527494256	0
bin	-1.0334341935435	0
bin	-0.70821563766133	0
bin	-0.3829970817792	0
bin	-0.057778525897066	144
bin	0.26744002998507	153
bin	0.5926585858672	161
bin	0.91787714174933	168
bin	1.2430956976315	214
bin	1.5683142535136	177
bin	1.8935328093957	183
bin	2.2187513652779	185
bin	2.54396992116	156
bin	2.8691884770421	140
bin	3.1944070329243	119
bin	3.5196255888064	120
bin	3.8448441446885	101
bin	4.1700627005707	100
bin	4.4952812564528	71
bin	4.8204998123349	74
bin	5.1457183682171	51
bin	5.4709369240992	60
bin	5.7961554799813	43
bin	6.1213740358635	38
bin	6.4465925917456	38
bin	6.7718111476277	36
bin	7.0970297035099	28
bin	7.422248259392	183
scalar scenarioPRJP1.node[13].app 	sentPk:count 	5019
attr interpolationmode  none
attr source  sentPk
attr title  "packets sent, count"
scalar scenarioPRJP1.node[13].app 	sentPk:sum(packetBytes) 	2569728
attr interpolationmode  none
attr source  sentPk
attr title  "packets sent, sum(packetBytes)"
scalar scenarioPRJP1.node[13].udp 	droppedPkBadChecksum:count 	0
attr interpolationmode  none
attr title  "packets dropped (checksum error), count"
scalar scenarioPRJP1.node[13].udp 	droppedPkWrongPort:count 	27
attr interpolationmode  none
attr title  "packets dropped (wrong port), count"
scalar scenarioPRJP1.node[13].udp 	passedUpPk:count 	7464
attr interpolationmode  none
attr title  "packets passed up, count"
scalar scenarioPRJP1.node[13].udp 	rcvdPk:count 	7491
attr interpolationmode  none
attr source  rcvdPk
attr title  "packets received, count"
scalar scenarioPRJP1.node[13].udp 	rcvdPk:sum(packetBytes) 	3895320
attr interpolationmode  none
attr source  rcvdPk
attr title  "packets received, sum(packetBytes)"
scalar scenarioPRJP1.node[13].udp 	sentPk:count 	5019
attr interpolationmode  none
attr source  sentPk
attr title  "packets sent, count"
scalar scenarioPRJP1.node[13].udp 	sentPk:sum(packetBytes) 	2609880
attr interpolationmode  none
attr source  sentPk
attr title  "packets sent, sum(packetBytes)"
scalar scenarioPRJP1.node[13].networkLayer.arp 	failedARPResolution:count 	75
attr title  "ARP failed resolutions, count"
scalar scenarioPRJP1.node[13].networkLayer.arp 	completedARPResolution:count 	2590
attr title  "ARP completed resolutions, count"
scalar scenarioPRJP1.node[13].networkLayer.arp 	initiatedARPResolution:count 	149
attr title  "ARP initiated resolutions, count"
scalar scenarioPRJP1.node[13].networkLayer.arp 	sentReply:count 	148
attr title  "ARP replies sent, count"
scalar scenarioPRJP1.node[13].networkLayer.arp 	sentReq:count 	351
attr title  "ARP request sent, count"
scalar scenarioPRJP1.node[13].mobility 	startTime 	2.5
scalar scenarioPRJP1.node[13].mobility 	totalTime 	1853.9
scalar scenarioPRJP1.node[13].mobility 	stopTime 	1856.5
scalar scenarioPRJP1.node[13].mobility 	minSpeed 	2.4754453160348e-13
scalar scenarioPRJP1.node[13].mobility 	maxSpeed 	16.206298207676
scalar scenarioPRJP1.node[13].mobility 	totalDistance 	17866.922066281
scalar scenarioPRJP1.node[13].mobility 	totalCO2Emission 	4603.9666206248
scalar scenarioPRJP1.node[13].wlan.mgmt 	dataQueueLen:max 	100
attr interpolationmode  sample-hold
attr title  "data queue length, max"
scalar scenarioPRJP1.node[13].wlan.mgmt 	dataQueueLen:timeavg 	27.196335842475
attr interpolationmode  sample-hold
attr title  "data queue length, timeavg"
scalar scenarioPRJP1.node[13].wlan.mgmt 	dropPkByQueue:count 	2351
attr interpolationmode  none
attr source  dropPkByQueue
attr title  "packets dropped by queue, count"
scalar scenarioPRJP1.node[13].wlan.mgmt 	dropPkByQueue:sum(packetBytes) 	781624
attr interpolationmode  none
attr source  dropPkByQueue
attr title  "packets dropped by queue, sum(packetBytes)"
scalar scenarioPRJP1.node[13].wlan.mac 	"number of received packets" 	57536
scalar scenarioPRJP1.node[13].wlan.mac 	"number of collisions" 	968439
scalar scenarioPRJP1.node[13].wlan.mac 	"number of internal collisions" 	29
scalar scenarioPRJP1.node[13].wlan.mac 	"number of retry for AC 0" 	93033
scalar scenarioPRJP1.node[13].wlan.mac 	"number of retry for AC 1" 	120
scalar scenarioPRJP1.node[13].wlan.mac 	"number of retry for AC 2" 	0
scalar scenarioPRJP1.node[13].wlan.mac 	"number of retry for AC 3" 	0
scalar scenarioPRJP1.node[13].wlan.mac 	"sent and received bits" 	106875232
scalar scenarioPRJP1.node[13].wlan.mac 	"sent packet within AC 0" 	50065
scalar scenarioPRJP1.node[13].wlan.mac 	"sent packet within AC 1" 	114
scalar scenarioPRJP1.node[13].wlan.mac 	"sent packet within AC 2" 	0
scalar scenarioPRJP1.node[13].wlan.mac 	"sent packet within AC 3" 	0
scalar scenarioPRJP1.node[13].wlan.mac 	"sent in TXOP " 	0
scalar scenarioPRJP1.node[13].wlan.mac 	"sentWithoutRetry AC 0" 	25880
scalar scenarioPRJP1.node[13].wlan.mac 	"sentWithoutRetry AC 1" 	71
scalar scenarioPRJP1.node[13].wlan.mac 	"sentWithoutRetry AC 2" 	0
scalar scenarioPRJP1.node[13].wlan.mac 	"sentWithoutRetry AC 3" 	0
scalar scenarioPRJP1.node[13].wlan.mac 	"numGivenUp AC 0" 	6549
scalar scenarioPRJP1.node[13].wlan.mac 	"numGivenUp AC 1" 	7
scalar scenarioPRJP1.node[13].wlan.mac 	"numGivenUp AC 2" 	0
scalar scenarioPRJP1.node[13].wlan.mac 	"numGivenUp AC 3" 	0
scalar scenarioPRJP1.node[13].wlan.mac 	"numDropped AC 0" 	34449
scalar scenarioPRJP1.node[13].wlan.mac 	"numDropped AC 1" 	95
scalar scenarioPRJP1.node[13].wlan.mac 	"numDropped AC 2" 	0
scalar scenarioPRJP1.node[13].wlan.mac 	"numDropped AC 3" 	0
scalar scenarioPRJP1.node[13].wlan.mac 	rcvdPkFromLL:count 	3547805
attr interpolationmode  none
attr source  packetReceivedFromLower
attr title  "packets received from lower layer, count"
scalar scenarioPRJP1.node[13].wlan.mac 	rcvdPkFromLL:sum(packetBytes) 	712342148
attr interpolationmode  none
attr source  packetReceivedFromLower
attr title  "packets received from lower layer, sum(packetBytes)"
scalar scenarioPRJP1.node[13].wlan.mac 	sentDownPk:count 	210111
attr interpolationmode  none
attr source  packetSentToLower
attr title  "packets sent to lower layer, count"
scalar scenarioPRJP1.node[13].wlan.mac 	sentDownPk:sum(packetBytes) 	47719424
attr interpolationmode  none
attr source  packetSentToLower
attr title  "packets sent to lower layer, sum(packetBytes)"
scalar scenarioPRJP1.node[13].wlan.mac 	rcvdPkFromHL:count 	93995
attr interpolationmode  none
attr source  packetReceivedFromUpper
attr title  "packets received from higher layer, count"
scalar scenarioPRJP1.node[13].wlan.mac 	rcvdPkFromHL:sum(packetBytes) 	25371260
attr interpolationmode  none
attr source  packetReceivedFromUpper
attr title  "packets received from higher layer, sum(packetBytes)"
scalar scenarioPRJP1.node[13].wlan.mac 	passedUpPk:count 	78125
attr interpolationmode  none
attr source  packetSentToUpper
attr title  "packets passed to higher layer, count"
scalar scenarioPRJP1.node[13].wlan.mac 	passedUpPk:sum(packetBytes) 	15628212
attr interpolationmode  none
attr source  packetSentToUpper
attr title  "packets passed to higher layer, sum(packetBytes)"
statistic scenarioPRJP1.node[13].wlan.radio 	radioChannel:histogram
field count 1
field mean 3
field stddev -nan
field sum 3
field sqrsum 9
field min 3
field max 3
attr interpolationmode  sample-hold
attr source  radioChannelChanged
attr title  "Radio channel, histogram"
bin	-INF	0
bin	2	0
bin	3	1
bin	4	0
scalar scenarioPRJP1.node[13].wlan.radio 	transmissionState:count 	840444
attr interpolationmode  sample-hold
attr source  transmissionStateChanged
attr title  "Radio transmission state, count"
scalar scenarioPRJP1.node[13].wlan.radio 	receptionState:count 	8073955
attr interpolationmode  sample-hold
attr source  receptionStateChanged
attr title  "Radio reception state, count"
scalar scenarioPRJP1.node[13].wlan.radio 	radioMode:count 	420224
attr interpolationmode  sample-hold
attr source  radioModeChanged
attr title  "Radio mode, count"
statistic scenarioPRJP1.node[13].wlan.radio 	symbolErrorRate:histogram
field count 0
field mean -nan
field stddev -nan
field sum 0
field sqrsum 0
field min -nan
field max -nan
attr source  symbolErrorRate
attr title  "Symbol error rate, histogram"
bin	-INF	0
bin	-0.5	0
bin	-0.46666666666667	0
bin	-0.43333333333333	0
bin	-0.4	0
bin	-0.36666666666667	0
bin	-0.33333333333333	0
bin	-0.3	0
bin	-0.26666666666667	0
bin	-0.23333333333333	0
bin	-0.2	0
bin	-0.16666666666667	0
bin	-0.13333333333333	0
bin	-0.1	0
bin	-0.066666666666667	0
bin	-0.033333333333333	0
bin	0	0
bin	0.033333333333333	0
bin	0.066666666666667	0
bin	0.1	0
bin	0.13333333333333	0
bin	0.16666666666667	0
bin	0.2	0
bin	0.23333333333333	0
bin	0.26666666666667	0
bin	0.3	0
bin	0.33333333333333	0
bin	0.36666666666667	0
bin	0.4	0
bin	0.43333333333333	0
bin	0.46666666666667	0
bin	0.5	0
statistic scenarioPRJP1.node[13].wlan.radio 	bitErrorRate:histogram
field count 0
field mean -nan
field stddev -nan
field sum 0
field sqrsum 0
field min -nan
field max -nan
attr source  bitErrorRate
attr title  "Bit error rate, histogram"
bin	-INF	0
bin	-0.5	0
bin	-0.46666666666667	0
bin	-0.43333333333333	0
bin	-0.4	0
bin	-0.36666666666667	0
bin	-0.33333333333333	0
bin	-0.3	0
bin	-0.26666666666667	0
bin	-0.23333333333333	0
bin	-0.2	0
bin	-0.16666666666667	0
bin	-0.13333333333333	0
bin	-0.1	0
bin	-0.066666666666667	0
bin	-0.033333333333333	0
bin	0	0
bin	0.033333333333333	0
bin	0.066666666666667	0
bin	0.1	0
bin	0.13333333333333	0
bin	0.16666666666667	0
bin	0.2	0
bin	0.23333333333333	0
bin	0.26666666666667	0
bin	0.3	0
bin	0.33333333333333	0
bin	0.36666666666667	0
bin	0.4	0
bin	0.43333333333333	0
bin	0.46666666666667	0
bin	0.5	0
statistic scenarioPRJP1.node[13].wlan.radio 	packetErrorRate:histogram
field count 3547805
field mean 0.2681163411071
field stddev 0.43874911674528
field sum 951224.49556149
field sqrsum 937993.89502109
field min 0
field max 1
attr source  packetErrorRate
attr title  "Packet error rate, histogram"
bin	-INF	0
bin	-0.5	0
bin	-0.43333333333333	0
bin	-0.36666666666667	0
bin	-0.3	0
bin	-0.23333333333333	0
bin	-0.16666666666667	0
bin	-0.1	0
bin	-0.033333333333333	2543307
bin	0.033333333333333	21204
bin	0.1	10408
bin	0.16666666666667	7116
bin	0.23333333333333	5645
bin	0.3	4733
bin	0.36666666666667	4098
bin	0.43333333333333	3832
bin	0.5	3705
bin	0.56666666666667	3599
bin	0.63333333333333	3590
bin	0.7	3692
bin	0.76666666666667	3930
bin	0.83333333333333	4805
bin	0.9	7420
bin	0.96666666666667	916721
bin	1.0333333333333	0
bin	1.1	0
bin	1.1666666666667	0
bin	1.2333333333333	0
bin	1.3	0
bin	1.3666666666667	0
bin	1.4333333333333	0
bin	1.5	0
statistic scenarioPRJP1.node[13].wlan.radio 	minSNIR:histogram
field count 3547805
field mean 30347.495100832
field stddev 749559.9434308
field sum 107666994856.21
field sqrsum 1.9965660089458e+18
field min 4.1900458857537e-06
field max 161440134.28864
attr source  minSNIR
attr title  "Min SNIR, histogram"
bin	-INF	0
bin	-24128.27241487	0
bin	-20911.165153778	0
bin	-17694.057892686	0
bin	-14476.950631595	0
bin	-11259.843370503	0
bin	-8042.7361094112	0
bin	-4825.6288483195	0
bin	-1608.5215872277	2504526
bin	1608.585673864	688322
bin	4825.6929349558	164275
bin	8042.8001960475	61831
bin	11259.907457139	29071
bin	14477.014718231	15870
bin	17694.121979323	10166
bin	20911.229240415	6712
bin	24128.336501506	4946
bin	27345.443762598	3736
bin	30562.55102369	2996
bin	33779.658284782	2483
bin	36996.765545873	2103
bin	40213.872806965	1837
bin	43430.980068057	1662
bin	46648.087329149	1397
bin	49865.19459024	1190
bin	53082.301851332	1214
bin	56299.409112424	985
bin	59516.516373516	967
bin	62733.623634607	796
bin	65950.730895699	785
bin	69167.838156791	753
bin	72384.945417883	39182
scalar scenarioPRJP1.node[13].lo0.lo 	droppedPkBitError:count 	0
attr interpolationmode  none
attr source  dropPkBitError
attr title  "packets dropped/bit error, count"
scalar scenarioPRJP1.node[13].lo0.lo 	droppedPkBitError:sum(packetBytes) 	0
attr interpolationmode  none
attr source  dropPkBitError
attr title  "packets dropped/bit error, sum(packetBytes)"
scalar scenarioPRJP1.node[13].lo0.lo 	rcvdPkFromHL:count 	7648
attr interpolationmode  none
attr source  packetReceivedFromUpper
attr title  "packets received from higher layer, count"
scalar scenarioPRJP1.node[13].lo0.lo 	rcvdPkFromHL:sum(packetBytes) 	3905880
attr interpolationmode  none
attr source  packetReceivedFromUpper
attr title  "packets received from higher layer, sum(packetBytes)"
scalar scenarioPRJP1.node[13].lo0.lo 	passedUpPk:count 	7648
attr interpolationmode  none
attr source  packetSentToUpper
attr title  "packets passed to higher layer, count"
scalar scenarioPRJP1.node[13].lo0.lo 	passedUpPk:sum(packetBytes) 	3905880
attr interpolationmode  none
attr source  packetSentToUpper
attr title  "packets passed to higher layer, sum(packetBytes)"
scalar scenarioPRJP1.radioMedium.propagation 	"Arrival computation count" 	131011968
scalar scenarioPRJP1.radioMedium 	"transmission count" 	5458832
scalar scenarioPRJP1.radioMedium 	"radio frame send count" 	131011968
scalar scenarioPRJP1.radioMedium 	"reception computation count" 	129944453
scalar scenarioPRJP1.radioMedium 	"interference computation count" 	340447146
scalar scenarioPRJP1.radioMedium 	"reception decision computation count" 	88393392
scalar scenarioPRJP1.radioMedium 	"listening decision computation count" 	123488385
scalar scenarioPRJP1.radioMedium 	"reception cache hit" 	80.322000750419
attr unit  %
scalar scenarioPRJP1.radioMedium 	"interference cache hit" 	50
attr unit  %
scalar scenarioPRJP1.radioMedium 	"noise cache hit" 	0
attr unit  %
scalar scenarioPRJP1.radioMedium 	"snir cache hit" 	0
attr unit  %
scalar scenarioPRJP1.radioMedium 	"reception decision cache hit" 	0
attr unit  %
scalar scenarioPRJP1.node[0].app 	"Total sent" 	5024
scalar scenarioPRJP1.node[0].app 	"Total received" 	2842
scalar scenarioPRJP1.node[0].app 	"Total deleted" 	0
scalar scenarioPRJP1.node[0].app 	dropPk:count 	0
attr interpolationmode  none
attr source  dropPk
attr title  "packets dropped, count"
scalar scenarioPRJP1.node[0].app 	dropPk:sum(packetBytes) 	0
attr interpolationmode  none
attr source  dropPk
attr title  "packets dropped, sum(packetBytes)"
scalar scenarioPRJP1.node[0].app 	outOfOrderPk:count 	5043
attr interpolationmode  none
attr source  outOfOrderPk
attr title  "packets received out of order, count"
scalar scenarioPRJP1.node[0].app 	outOfOrderPk:sum(packetBytes) 	2582016
attr interpolationmode  none
attr source  outOfOrderPk
attr title  "packets received out of order, sum(packetBytes)"
scalar scenarioPRJP1.node[0].app 	rcvdPk:count 	2842
attr interpolationmode  none
attr source  rcvdPk
attr title  "packets received, count"
scalar scenarioPRJP1.node[0].app 	rcvdPk:sum(packetBytes) 	1455104
attr interpolationmode  none
attr source  rcvdPk
attr title  "packets received, sum(packetBytes)"
statistic scenarioPRJP1.node[0].app 	endToEndDelay:histogram
field count 2842
field mean 3.1974705774555
field stddev 2.5954551010684
field sum 9087.2113811286
field sqrsum 48194.16700538
field min 0.001239650642
field max 18.692088091317
attr interpolationmode  none
attr source  messageAge(rcvdPk)
attr title  "delay, histogram"
attr unit  s
bin	-INF	0
bin	-4.0291429505945	0
bin	-3.4898475007504	0
bin	-2.9505520509064	0
bin	-2.4112566010623	0
bin	-1.8719611512182	0
bin	-1.3326657013742	0
bin	-0.7933702515301	0
bin	-0.25407480168603	169
bin	0.28522064815803	255
bin	0.8245160980021	296
bin	1.3638115478462	322
bin	1.9031069976902	317
bin	2.4424024475343	269
bin	2.9816978973784	210
bin	3.5209933472224	205
bin	4.0602887970665	156
bin	4.5995842469106	145
bin	5.1388796967546	82
bin	5.6781751465987	83
bin	6.2174705964428	55
bin	6.7567660462868	56
bin	7.2960614961309	47
bin	7.835356945975	40
bin	8.374652395819	25
bin	8.9139478456631	28
bin	9.4532432955072	21
bin	9.9925387453512	5
bin	10.531834195195	10
bin	11.071129645039	6
bin	11.610425094883	14
bin	12.149720544727	26
scalar scenarioPRJP1.node[0].app 	sentPk:count 	5024
attr interpolationmode  none
attr source  sentPk
attr title  "packets sent, count"
scalar scenarioPRJP1.node[0].app 	sentPk:sum(packetBytes) 	2572288
attr interpolationmode  none
attr source  sentPk
attr title  "packets sent, sum(packetBytes)"
scalar scenarioPRJP1.node[0].udp 	droppedPkBadChecksum:count 	0
attr interpolationmode  none
attr title  "packets dropped (checksum error), count"
scalar scenarioPRJP1.node[0].udp 	droppedPkWrongPort:count 	34
attr interpolationmode  none
attr title  "packets dropped (wrong port), count"
scalar scenarioPRJP1.node[0].udp 	passedUpPk:count 	7885
attr interpolationmode  none
attr title  "packets passed up, count"
scalar scenarioPRJP1.node[0].udp 	rcvdPk:count 	7919
attr interpolationmode  none
attr source  rcvdPk
attr title  "packets received, count"
scalar scenarioPRJP1.node[0].udp 	rcvdPk:sum(packetBytes) 	4117880
attr interpolationmode  none
attr source  rcvdPk
attr title  "packets received, sum(packetBytes)"
scalar scenarioPRJP1.node[0].udp 	sentPk:count 	5024
attr interpolationmode  none
attr source  sentPk
attr title  "packets sent, count"
scalar scenarioPRJP1.node[0].udp 	sentPk:sum(packetBytes) 	2612480
attr interpolationmode  none
attr source  sentPk
attr title  "packets sent, sum(packetBytes)"
scalar scenarioPRJP1.node[0].networkLayer.arp 	failedARPResolution:count 	63
attr title  "ARP failed resolutions, count"
scalar scenarioPRJP1.node[0].networkLayer.arp 	completedARPResolution:count 	2684
attr title  "ARP completed resolutions, count"
scalar scenarioPRJP1.node[0].networkLayer.arp 	initiatedARPResolution:count 	144
attr title  "ARP initiated resolutions, count"
scalar scenarioPRJP1.node[0].networkLayer.arp 	sentReply:count 	98
attr title  "ARP replies sent, count"
scalar scenarioPRJP1.node[0].networkLayer.arp 	sentReq:count 	332
attr title  "ARP request sent, count"
scalar scenarioPRJP1.node[0].mobility 	startTime 	0.1
scalar scenarioPRJP1.node[0].mobility 	totalTime 	1899.9
scalar scenarioPRJP1.node[0].mobility 	stopTime 	1900
scalar scenarioPRJP1.node[0].mobility 	minSpeed 	2.4758631114563e-13
scalar scenarioPRJP1.node[0].mobility 	maxSpeed 	18.826701022149
scalar scenarioPRJP1.node[0].mobility 	totalDistance 	20561.003777567
scalar scenarioPRJP1.node[0].mobility 	totalCO2Emission 	5503.9236164732
scalar scenarioPRJP1.node[0].wlan.mgmt 	dataQueueLen:max 	100
attr interpolationmode  sample-hold
attr title  "data queue length, max"
scalar scenarioPRJP1.node[0].wlan.mgmt 	dataQueueLen:timeavg 	26.704585651397
attr interpolationmode  sample-hold
attr title  "data queue length, timeavg"
scalar scenarioPRJP1.node[0].wlan.mgmt 	dropPkByQueue:count 	2850
attr interpolationmode  none
attr source  dropPkByQueue
attr title  "packets dropped by queue, count"
scalar scenarioPRJP1.node[0].wlan.mgmt 	dropPkByQueue:sum(packetBytes) 	956648
attr interpolationmode  none
attr source  dropPkByQueue
attr title  "packets dropped by queue, sum(packetBytes)"
scalar scenarioPRJP1.node[0].wlan.mac 	"number of received packets" 	58501
scalar scenarioPRJP1.node[0].wlan.mac 	"number of collisions" 	997159
scalar scenarioPRJP1.node[0].wlan.mac 	"number of internal collisions" 	43
scalar scenarioPRJP1.node[0].wlan.mac 	"number of retry for AC 0" 	91236
scalar scenarioPRJP1.node[0].wlan.mac 	"number of retry for AC 1" 	198
scalar scenarioPRJP1.node[0].wlan.mac 	"number of retry for AC 2" 	0
scalar scenarioPRJP1.node[0].wlan.mac 	"number of retry for AC 3" 	0
scalar scenarioPRJP1.node[0].wlan.mac 	"sent and received bits" 	115041856
scalar scenarioPRJP1.node[0].wlan.mac 	"sent packet within AC 0" 	53022
scalar scenarioPRJP1.node[0].wlan.mac 	"sent packet within AC 1" 	113
scalar scenarioPRJP1.node[0].wlan.mac 	"sent packet within AC 2" 	0
scalar scenarioPRJP1.node[0].wlan.mac 	"sent packet within AC 3" 	0
scalar scenarioPRJP1.node[0].wlan.mac 	"sent in TXOP " 	0
scalar scenarioPRJP1.node[0].wlan.mac 	"sentWithoutRetry AC 0" 	28704
scalar scenarioPRJP1.node[0].wlan.mac 	"sentWithoutRetry AC 1" 	62
scalar scenarioPRJP1.node[0].wlan.mac 	"sentWithoutRetry AC 2" 	0
scalar scenarioPRJP1.node[0].wlan.mac 	"sentWithoutRetry AC 3" 	0
scalar scenarioPRJP1.node[0].wlan.mac 	"numGivenUp AC 0" 	6317
scalar scenarioPRJP1.node[0].wlan.mac 	"numGivenUp AC 1" 	14
scalar scenarioPRJP1.node[0].wlan.mac 	"numGivenUp AC 2" 	0
scalar scenarioPRJP1.node[0].wlan.mac 	"numGivenUp AC 3" 	0
scalar scenarioPRJP1.node[0].wlan.mac 	"numDropped AC 0" 	32661
scalar scenarioPRJP1.node[0].wlan.mac 	"numDropped AC 1" 	73
scalar scenarioPRJP1.node[0].wlan.mac 	"numDropped AC 2" 	0
scalar scenarioPRJP1.node[0].wlan.mac 	"numDropped AC 3" 	0
scalar scenarioPRJP1.node[0].wlan.mac 	rcvdPkFromLL:count 	3549648
attr interpolationmode  none
attr source  packetReceivedFromLower
attr title  "packets received from lower layer, count"
scalar scenarioPRJP1.node[0].wlan.mac 	rcvdPkFromLL:sum(packetBytes) 	711922922
attr interpolationmode  none
attr source  packetReceivedFromLower
attr title  "packets received from lower layer, sum(packetBytes)"
scalar scenarioPRJP1.node[0].wlan.mac 	sentDownPk:count 	211845
attr interpolationmode  none
attr source  packetSentToLower
attr title  "packets sent to lower layer, count"
scalar scenarioPRJP1.node[0].wlan.mac 	sentDownPk:sum(packetBytes) 	47428222
attr interpolationmode  none
attr source  packetSentToLower
attr title  "packets sent to lower layer, sum(packetBytes)"
scalar scenarioPRJP1.node[0].wlan.mac 	rcvdPkFromHL:count 	94687
attr interpolationmode  none
attr source  packetReceivedFromUpper
attr title  "packets received from higher layer, count"
scalar scenarioPRJP1.node[0].wlan.mac 	rcvdPkFromHL:sum(packetBytes) 	25786320
attr interpolationmode  none
attr source  packetReceivedFromUpper
attr title  "packets received from higher layer, sum(packetBytes)"
scalar scenarioPRJP1.node[0].wlan.mac 	passedUpPk:count 	79284
attr interpolationmode  none
attr source  packetSentToUpper
attr title  "packets passed to higher layer, count"
scalar scenarioPRJP1.node[0].wlan.mac 	passedUpPk:sum(packetBytes) 	16462268
attr interpolationmode  none
attr source  packetSentToUpper
attr title  "packets passed to higher layer, sum(packetBytes)"
statistic scenarioPRJP1.node[0].wlan.radio 	radioChannel:histogram
field count 1
field mean 3
field stddev -nan
field sum 3
field sqrsum 9
field min 3
field max 3
attr interpolationmode  sample-hold
attr source  radioChannelChanged
attr title  "Radio channel, histogram"
bin	-INF	0
bin	2	0
bin	3	1
bin	4	0
scalar scenarioPRJP1.node[0].wlan.radio 	transmissionState:count 	847380
attr interpolationmode  sample-hold
attr source  transmissionStateChanged
attr title  "Radio transmission state, count"
scalar scenarioPRJP1.node[0].wlan.radio 	receptionState:count 	8091770
attr interpolationmode  sample-hold
attr source  receptionStateChanged
attr title  "Radio reception state, count"
scalar scenarioPRJP1.node[0].wlan.radio 	radioMode:count 	423692
attr interpolationmode  sample-hold
attr source  radioModeChanged
attr title  "Radio mode, count"
statistic scenarioPRJP1.node[0].wlan.radio 	symbolErrorRate:histogram
field count 0
field mean -nan
field stddev -nan
field sum 0
field sqrsum 0
field min -nan
field max -nan
attr source  symbolErrorRate
attr title  "Symbol error rate, histogram"
bin	-INF	0
bin	-0.5	0
bin	-0.46666666666667	0
bin	-0.43333333333333	0
bin	-0.4	0
bin	-0.36666666666667	0
bin	-0.33333333333333	0
bin	-0.3	0
bin	-0.26666666666667	0
bin	-0.23333333333333	0
bin	-0.2	0
bin	-0.16666666666667	0
bin	-0.13333333333333	0
bin	-0.1	0
bin	-0.066666666666667	0
bin	-0.033333333333333	0
bin	0	0
bin	0.033333333333333	0
bin	0.066666666666667	0
bin	0.1	0
bin	0.13333333333333	0
bin	0.16666666666667	0
bin	0.2	0
bin	0.23333333333333	0
bin	0.26666666666667	0
bin	0.3	0
bin	0.33333333333333	0
bin	0.36666666666667	0
bin	0.4	0
bin	0.43333333333333	0
bin	0.46666666666667	0
bin	0.5	0
statistic scenarioPRJP1.node[0].wlan.radio 	bitErrorRate:histogram
field count 0
field mean -nan
field stddev -nan
field sum 0
field sqrsum 0
field min -nan
field max -nan
attr source  bitErrorRate
attr title  "Bit error rate, histogram"
bin	-INF	0
bin	-0.5	0
bin	-0.46666666666667	0
bin	-0.43333333333333	0
bin	-0.4	0
bin	-0.36666666666667	0
bin	-0.33333333333333	0
bin	-0.3	0
bin	-0.26666666666667	0
bin	-0.23333333333333	0
bin	-0.2	0
bin	-0.16666666666667	0
bin	-0.13333333333333	0
bin	-0.1	0
bin	-0.066666666666667	0
bin	-0.033333333333333	0
bin	0	0
bin	0.033333333333333	0
bin	0.066666666666667	0
bin	0.1	0
bin	0.13333333333333	0
bin	0.16666666666667	0
bin	0.2	0
bin	0.23333333333333	0
bin	0.26666666666667	0
bin	0.3	0
bin	0.33333333333333	0
bin	0.36666666666667	0
bin	0.4	0
bin	0.43333333333333	0
bin	0.46666666666667	0
bin	0.5	0
statistic scenarioPRJP1.node[0].wlan.radio 	packetErrorRate:histogram
field count 3549648
field mean 0.27594399543672
field stddev 0.44284339328553
field sum 979504.05151398
field sqrsum 966410.49656264
field min 0
field max 1
attr source  packetErrorRate
attr title  "Packet error rate, histogram"
bin	-INF	0
bin	-0.5	0
bin	-0.43333333333333	0
bin	-0.36666666666667	0
bin	-0.3	0
bin	-0.23333333333333	0
bin	-0.16666666666667	0
bin	-0.1	0
bin	-0.033333333333333	2517593
bin	0.033333333333333	20695
bin	0.1	10358
bin	0.16666666666667	6979
bin	0.23333333333333	5561
bin	0.3	4756
bin	0.36666666666667	4197
bin	0.43333333333333	3799
bin	0.5	3657
bin	0.56666666666667	3485
bin	0.63333333333333	3451
bin	0.7	3703
bin	0.76666666666667	3921
bin	0.83333333333333	4929
bin	0.9	7386
bin	0.96666666666667	945178
bin	1.0333333333333	0
bin	1.1	0
bin	1.1666666666667	0
bin	1.2333333333333	0
bin	1.3	0
bin	1.3666666666667	0
bin	1.4333333333333	0
bin	1.5	0
statistic scenarioPRJP1.node[0].wlan.radio 	minSNIR:histogram
field count 3549648
field mean 56517.240727485
field stddev 1033943.3930763
field sum 200616310513.84
field sqrsum 3.8060491468748e+18
field min 3.4960135188385e-06
field max 262411516.53699
attr source  minSNIR
attr title  "Min SNIR, histogram"
bin	-INF	0
bin	-29576.373391739	0
bin	-25632.855746397	0
bin	-21689.338101055	0
bin	-17745.820455713	0
bin	-13802.302810371	0
bin	-9858.7851650287	0
bin	-5915.2675196866	0
bin	-1971.7498743445	2655018
bin	1971.7677709976	592013
bin	5915.2854163397	127149
bin	9858.8030616818	46474
bin	13802.320707024	21946
bin	17745.838352366	12572
bin	21689.355997708	8061
bin	25632.87364305	5610
bin	29576.391288392	4275
bin	33519.908933734	3376
bin	37463.426579076	2820
bin	41406.944224419	2326
bin	45350.461869761	2036
bin	49293.979515103	1725
bin	53237.497160445	1515
bin	57181.014805787	1397
bin	61124.532451129	1207
bin	65068.050096471	1153
bin	69011.567741813	1052
bin	72955.085387155	959
bin	76898.603032497	838
bin	80842.120677839	801
bin	84785.638323182	750
bin	88729.155968524	54575
scalar scenarioPRJP1.node[0].lo0.lo 	droppedPkBitError:count 	0
attr interpolationmode  none
attr source  dropPkBitError
attr title  "packets dropped/bit error, count"
scalar scenarioPRJP1.node[0].lo0.lo 	droppedPkBitError:sum(packetBytes) 	0
attr interpolationmode  none
attr source  dropPkBitError
attr title  "packets dropped/bit error, sum(packetBytes)"
scalar scenarioPRJP1.node[0].lo0.lo 	rcvdPkFromHL:count 	7933
attr interpolationmode  none
attr source  packetReceivedFromUpper
attr title  "packets received from higher layer, count"
scalar scenarioPRJP1.node[0].lo0.lo 	rcvdPkFromHL:sum(packetBytes) 	4118656
attr interpolationmode  none
attr source  packetReceivedFromUpper
attr title  "packets received from higher layer, sum(packetBytes)"
scalar scenarioPRJP1.node[0].lo0.lo 	passedUpPk:count 	7933
attr interpolationmode  none
attr source  packetSentToUpper
attr title  "packets passed to higher layer, count"
scalar scenarioPRJP1.node[0].lo0.lo 	passedUpPk:sum(packetBytes) 	4118656
attr interpolationmode  none
attr source  packetSentToUpper
attr title  "packets passed to higher layer, sum(packetBytes)"
scalar scenarioPRJP1.node[1].app 	"Total sent" 	4992
scalar scenarioPRJP1.node[1].app 	"Total received" 	2771
scalar scenarioPRJP1.node[1].app 	"Total deleted" 	3
scalar scenarioPRJP1.node[1].app 	dropPk:count 	3
attr interpolationmode  none
attr source  dropPk
attr title  "packets dropped, count"
scalar scenarioPRJP1.node[1].app 	dropPk:sum(packetBytes) 	1536
attr interpolationmode  none
attr source  dropPk
attr title  "packets dropped, sum(packetBytes)"
scalar scenarioPRJP1.node[1].app 	outOfOrderPk:count 	5437
attr interpolationmode  none
attr source  outOfOrderPk
attr title  "packets received out of order, count"
scalar scenarioPRJP1.node[1].app 	outOfOrderPk:sum(packetBytes) 	2783744
attr interpolationmode  none
attr source  outOfOrderPk
attr title  "packets received out of order, sum(packetBytes)"
scalar scenarioPRJP1.node[1].app 	rcvdPk:count 	2771
attr interpolationmode  none
attr source  rcvdPk
attr title  "packets received, count"
scalar scenarioPRJP1.node[1].app 	rcvdPk:sum(packetBytes) 	1418752
attr interpolationmode  none
attr source  rcvdPk
attr title  "packets received, sum(packetBytes)"
statistic scenarioPRJP1.node[1].app 	endToEndDelay:histogram
field count 2771
field mean 3.1574881538433
field stddev 2.5754201830624
field sum 8749.3996742996
field sqrsum 45998.951685372
field min 0.001114479321
field max 17.707286190334
attr interpolationmode  none
attr source  messageAge(rcvdPk)
attr title  "delay, histogram"
attr unit  s
bin	-INF	0
bin	-3.5825258242055	0
bin	-3.1036800394868	0
bin	-2.624834254768	0
bin	-2.1459884700493	0
bin	-1.6671426853306	0
bin	-1.1882969006118	0
bin	-0.7094511158931	0
bin	-0.23060533117437	132
bin	0.24824045354437	222
bin	0.7270862382631	257
bin	1.2059320229818	308
bin	1.6847778077006	301
bin	2.1636235924193	234
bin	2.642469377138	210
bin	3.1213151618568	192
bin	3.6001609465755	148
bin	4.0790067312942	137
bin	4.557852516013	115
bin	5.0366983007317	98
bin	5.5155440854504	70
bin	5.9943898701692	51
bin	6.4732356548879	52
bin	6.9520814396066	45
bin	7.4309272243254	39
bin	7.9097730090441	27
bin	8.3886187937628	20
bin	8.8674645784816	21
bin	9.3463103632003	15
bin	9.825156147919	14
bin	10.304001932638	18
bin	10.782847717356	45
scalar scenarioPRJP1.node[1].app 	sentPk:count 	4992
attr interpolationmode  none
attr source  sentPk
attr title  "packets sent, count"
scalar scenarioPRJP1.node[1].app 	sentPk:sum(packetBytes) 	2555904
attr interpolationmode  none
attr source  sentPk
attr title  "packets sent, sum(packetBytes)"
scalar scenarioPRJP1.node[1].udp 	droppedPkBadChecksum:count 	0
attr interpolationmode  none
attr title  "packets dropped (checksum error), count"
scalar scenarioPRJP1.node[1].udp 	droppedPkWrongPort:count 	97
attr interpolationmode  none
attr title  "packets dropped (wrong port), count"
scalar scenarioPRJP1.node[1].udp 	passedUpPk:count 	8211
attr interpolationmode  none
attr title  "packets passed up, count"
scalar scenarioPRJP1.node[1].udp 	rcvdPk:count 	8308
attr interpolationmode  none
attr source  rcvdPk
attr title  "packets received, count"
scalar scenarioPRJP1.node[1].udp 	rcvdPk:sum(packetBytes) 	4320160
attr interpolationmode  none
attr source  rcvdPk
attr title  "packets received, sum(packetBytes)"
scalar scenarioPRJP1.node[1].udp 	sentPk:count 	4992
attr interpolationmode  none
attr source  sentPk
attr title  "packets sent, count"
scalar scenarioPRJP1.node[1].udp 	sentPk:sum(packetBytes) 	2595840
attr interpolationmode  none
attr source  sentPk
attr title  "packets sent, sum(packetBytes)"
scalar scenarioPRJP1.node[1].networkLayer.arp 	failedARPResolution:count 	101
attr title  "ARP failed resolutions, count"
scalar scenarioPRJP1.node[1].networkLayer.arp 	completedARPResolution:count 	2771
attr title  "ARP completed resolutions, count"
scalar scenarioPRJP1.node[1].networkLayer.arp 	initiatedARPResolution:count 	182
attr title  "ARP initiated resolutions, count"
scalar scenarioPRJP1.node[1].networkLayer.arp 	sentReply:count 	74
attr title  "ARP replies sent, count"
scalar scenarioPRJP1.node[1].networkLayer.arp 	sentReq:count 	427
attr title  "ARP request sent, count"
scalar scenarioPRJP1.node[1].mobility 	startTime 	0.1
scalar scenarioPRJP1.node[1].mobility 	totalTime 	1899.9
scalar scenarioPRJP1.node[1].mobility 	stopTime 	1900
scalar scenarioPRJP1.node[1].mobility 	minSpeed 	2.475738795101e-13
scalar scenarioPRJP1.node[1].mobility 	maxSpeed 	18.43623060702
scalar scenarioPRJP1.node[1].mobility 	totalDistance 	20666.024028844
scalar scenarioPRJP1.node[1].mobility 	totalCO2Emission 	5449.4227888295
scalar scenarioPRJP1.node[1].wlan.mgmt 	dataQueueLen:max 	100
attr interpolationmode  sample-hold
attr title  "data queue length, max"
scalar scenarioPRJP1.node[1].wlan.mgmt 	dataQueueLen:timeavg 	22.43092708783
attr interpolationmode  sample-hold
attr title  "data queue length, timeavg"
scalar scenarioPRJP1.node[1].wlan.mgmt 	dropPkByQueue:count 	2389
attr interpolationmode  none
attr source  dropPkByQueue
attr title  "packets dropped by queue, count"
scalar scenarioPRJP1.node[1].wlan.mgmt 	dropPkByQueue:sum(packetBytes) 	788188
attr interpolationmode  none
attr source  dropPkByQueue
attr title  "packets dropped by queue, sum(packetBytes)"
scalar scenarioPRJP1.node[1].wlan.mac 	"number of received packets" 	61045
scalar scenarioPRJP1.node[1].wlan.mac 	"number of collisions" 	943812
scalar scenarioPRJP1.node[1].wlan.mac 	"number of internal collisions" 	55
scalar scenarioPRJP1.node[1].wlan.mac 	"number of retry for AC 0" 	94358
scalar scenarioPRJP1.node[1].wlan.mac 	"number of retry for AC 1" 	194
scalar scenarioPRJP1.node[1].wlan.mac 	"number of retry for AC 2" 	0
scalar scenarioPRJP1.node[1].wlan.mac 	"number of retry for AC 3" 	0
scalar scenarioPRJP1.node[1].wlan.mac 	"sent and received bits" 	119626976
scalar scenarioPRJP1.node[1].wlan.mac 	"sent packet within AC 0" 	55855
scalar scenarioPRJP1.node[1].wlan.mac 	"sent packet within AC 1" 	230
scalar scenarioPRJP1.node[1].wlan.mac 	"sent packet within AC 2" 	0
scalar scenarioPRJP1.node[1].wlan.mac 	"sent packet within AC 3" 	0
scalar scenarioPRJP1.node[1].wlan.mac 	"sent in TXOP " 	0
scalar scenarioPRJP1.node[1].wlan.mac 	"sentWithoutRetry AC 0" 	30356
scalar scenarioPRJP1.node[1].wlan.mac 	"sentWithoutRetry AC 1" 	143
scalar scenarioPRJP1.node[1].wlan.mac 	"sentWithoutRetry AC 2" 	0
scalar scenarioPRJP1.node[1].wlan.mac 	"sentWithoutRetry AC 3" 	0
scalar scenarioPRJP1.node[1].wlan.mac 	"numGivenUp AC 0" 	6364
scalar scenarioPRJP1.node[1].wlan.mac 	"numGivenUp AC 1" 	2
scalar scenarioPRJP1.node[1].wlan.mac 	"numGivenUp AC 2" 	0
scalar scenarioPRJP1.node[1].wlan.mac 	"numGivenUp AC 3" 	0
scalar scenarioPRJP1.node[1].wlan.mac 	"numDropped AC 0" 	32254
scalar scenarioPRJP1.node[1].wlan.mac 	"numDropped AC 1" 	173
scalar scenarioPRJP1.node[1].wlan.mac 	"numDropped AC 2" 	0
scalar scenarioPRJP1.node[1].wlan.mac 	"numDropped AC 3" 	0
scalar scenarioPRJP1.node[1].wlan.mac 	rcvdPkFromLL:count 	3539518
attr interpolationmode  none
attr source  packetReceivedFromLower
attr title  "packets received from lower layer, count"
scalar scenarioPRJP1.node[1].wlan.mac 	rcvdPkFromLL:sum(packetBytes) 	709932516
attr interpolationmode  none
attr source  packetReceivedFromLower
attr title  "packets received from lower layer, sum(packetBytes)"
scalar scenarioPRJP1.node[1].wlan.mac 	sentDownPk:count 	220480
attr interpolationmode  none
attr source  packetSentToLower
attr title  "packets sent to lower layer, count"
scalar scenarioPRJP1.node[1].wlan.mac 	sentDownPk:sum(packetBytes) 	49103810
attr interpolationmode  none
attr source  packetSentToLower
attr title  "packets sent to lower layer, sum(packetBytes)"
scalar scenarioPRJP1.node[1].wlan.mac 	rcvdPkFromHL:count 	97365
attr interpolationmode  none
attr source  packetReceivedFromUpper
attr title  "packets received from higher layer, count"
scalar scenarioPRJP1.node[1].wlan.mac 	rcvdPkFromHL:sum(packetBytes) 	26348852
attr interpolationmode  none
attr source  packetReceivedFromUpper
attr title  "packets received from higher layer, sum(packetBytes)"
scalar scenarioPRJP1.node[1].wlan.mac 	passedUpPk:count 	82553
attr interpolationmode  none
attr source  packetSentToUpper
attr title  "packets passed to higher layer, count"
scalar scenarioPRJP1.node[1].wlan.mac 	passedUpPk:sum(packetBytes) 	16910008
attr interpolationmode  none
attr source  packetSentToUpper
attr title  "packets passed to higher layer, sum(packetBytes)"
statistic scenarioPRJP1.node[1].wlan.radio 	radioChannel:histogram
field count 1
field mean 3
field stddev -nan
field sum 3
field sqrsum 9
field min 3
field max 3
attr interpolationmode  sample-hold
attr source  radioChannelChanged
attr title  "Radio channel, histogram"
bin	-INF	0
bin	2	0
bin	3	1
bin	4	0
scalar scenarioPRJP1.node[1].wlan.radio 	transmissionState:count 	881920
attr interpolationmode  sample-hold
attr source  transmissionStateChanged
attr title  "Radio transmission state, count"
scalar scenarioPRJP1.node[1].wlan.radio 	receptionState:count 	8082343
attr interpolationmode  sample-hold
attr source  receptionStateChanged
attr title  "Radio reception state, count"
scalar scenarioPRJP1.node[1].wlan.radio 	radioMode:count 	440962
attr interpolationmode  sample-hold
attr source  radioModeChanged
attr title  "Radio mode, count"
statistic scenarioPRJP1.node[1].wlan.radio 	symbolErrorRate:histogram
field count 0
field mean -nan
field stddev -nan
field sum 0
field sqrsum 0
field min -nan
field max -nan
attr source  symbolErrorRate
attr title  "Symbol error rate, histogram"
bin	-INF	0
bin	-0.5	0
bin	-0.46666666666667	0
bin	-0.43333333333333	0
bin	-0.4	0
bin	-0.36666666666667	0
bin	-0.33333333333333	0
bin	-0.3	0
bin	-0.26666666666667	0
bin	-0.23333333333333	0
bin	-0.2	0
bin	-0.16666666666667	0
bin	-0.13333333333333	0
bin	-0.1	0
bin	-0.066666666666667	0
bin	-0.033333333333333	0
bin	0	0
bin	0.033333333333333	0
bin	0.066666666666667	0
bin	0.1	0
bin	0.13333333333333	0
bin	0.16666666666667	0
bin	0.2	0
bin	0.23333333333333	0
bin	0.26666666666667	0
bin	0.3	0
bin	0.33333333333333	0
bin	0.36666666666667	0
bin	0.4	0
bin	0.43333333333333	0
bin	0.46666666666667	0
bin	0.5	0
statistic scenarioPRJP1.node[1].wlan.radio 	bitErrorRate:histogram
field count 0
field mean -nan
field stddev -nan
field sum 0
field sqrsum 0
field min -nan
field max -nan
attr source  bitErrorRate
attr title  "Bit error rate, histogram"
bin	-INF	0
bin	-0.5	0
bin	-0.46666666666667	0
bin	-0.43333333333333	0
bin	-0.4	0
bin	-0.36666666666667	0
bin	-0.33333333333333	0
bin	-0.3	0
bin	-0.26666666666667	0
bin	-0.23333333333333	0
bin	-0.2	0
bin	-0.16666666666667	0
bin	-0.13333333333333	0
bin	-0.1	0
bin	-0.066666666666667	0
bin	-0.033333333333333	0
bin	0	0
bin	0.033333333333333	0
bin	0.066666666666667	0
bin	0.1	0
bin	0.13333333333333	0
bin	0.16666666666667	0
bin	0.2	0
bin	0.23333333333333	0
bin	0.26666666666667	0
bin	0.3	0
bin	0.33333333333333	0
bin	0.36666666666667	0
bin	0.4	0
bin	0.43333333333333	0
bin	0.46666666666667	0
bin	0.5	0
statistic scenarioPRJP1.node[1].wlan.radio 	packetErrorRate:histogram
field count 3539518
field mean 0.2622988723062
field stddev 0.43593244790235
field sum 928411.57990751
field sqrsum 916160.85346171
field min 0
field max 1
attr source  packetErrorRate
attr title  "Packet error rate, histogram"
bin	-INF	0
bin	-0.5	0
bin	-0.43333333333333	0
bin	-0.36666666666667	0
bin	-0.3	0
bin	-0.23333333333333	0
bin	-0.16666666666667	0
bin	-0.1	0
bin	-0.033333333333333	2562046
bin	0.033333333333333	19178
bin	0.1	9685
bin	0.16666666666667	6559
bin	0.23333333333333	5181
bin	0.3	4597
bin	0.36666666666667	3947
bin	0.43333333333333	3675
bin	0.5	3345
bin	0.56666666666667	3218
bin	0.63333333333333	3310
bin	0.7	3247
bin	0.76666666666667	3624
bin	0.83333333333333	4497
bin	0.9	6870
bin	0.96666666666667	896539
bin	1.0333333333333	0
bin	1.1	0
bin	1.1666666666667	0
bin	1.2333333333333	0
bin	1.3	0
bin	1.3666666666667	0
bin	1.4333333333333	0
bin	1.5	0
statistic scenarioPRJP1.node[1].wlan.radio 	minSNIR:histogram
field count 3539518
field mean 73040.871142371
field stddev 1014199.9622162
field sum 258529478144.1
field sqrsum 3.6596359380363e+18
field min 1.7058181981231e-06
field max 167429341.05685
attr source  minSNIR
attr title  "Min SNIR, histogram"
bin	-INF	0
bin	-3305.5820349323	0
bin	-2864.8376192831	0
bin	-2424.0932036339	0
bin	-1983.3487879847	0
bin	-1542.6043723355	0
bin	-1101.8599566863	0
bin	-661.11554103707	0
bin	-220.37112538787	1362792
bin	220.37329026134	409076
bin	661.11770591055	394583
bin	1101.8621215598	265663
bin	1542.606537209	185925
bin	1983.3509528582	135629
bin	2424.0953685074	102970
bin	2864.8397841566	79896
bin	3305.5841998058	63825
bin	3746.328615455	52065
bin	4187.0730311042	42946
bin	4627.8174467534	35705
bin	5068.5618624026	30446
bin	5509.3062780518	25735
bin	5950.0506937011	22051
bin	6390.7951093503	19022
bin	6831.5395249995	16785
bin	7272.2839406487	14507
bin	7713.0283562979	12859
bin	8153.7727719471	11387
bin	8594.5171875963	10190
bin	9035.2616032455	9061
bin	9476.0060188947	8189
bin	9916.7504345439	228211
scalar scenarioPRJP1.node[1].lo0.lo 	droppedPkBitError:count 	0
attr interpolationmode  none
attr source  dropPkBitError
attr title  "packets dropped/bit error, count"
scalar scenarioPRJP1.node[1].lo0.lo 	droppedPkBitError:sum(packetBytes) 	0
attr interpolationmode  none
attr source  dropPkBitError
attr title  "packets dropped/bit error, sum(packetBytes)"
scalar scenarioPRJP1.node[1].lo0.lo 	rcvdPkFromHL:count 	8420
attr interpolationmode  none
attr source  packetReceivedFromUpper
attr title  "packets received from higher layer, count"
scalar scenarioPRJP1.node[1].lo0.lo 	rcvdPkFromHL:sum(packetBytes) 	4329136
attr interpolationmode  none
attr source  packetReceivedFromUpper
attr title  "packets received from higher layer, sum(packetBytes)"
scalar scenarioPRJP1.node[1].lo0.lo 	passedUpPk:count 	8420
attr interpolationmode  none
attr source  packetSentToUpper
attr title  "packets passed to higher layer, count"
scalar scenarioPRJP1.node[1].lo0.lo 	passedUpPk:sum(packetBytes) 	4329136
attr interpolationmode  none
attr source  packetSentToUpper
attr title  "packets passed to higher layer, sum(packetBytes)"
scalar scenarioPRJP1.node[14].app 	"Total sent" 	5006
scalar scenarioPRJP1.node[14].app 	"Total received" 	2828
scalar scenarioPRJP1.node[14].app 	"Total deleted" 	4
scalar scenarioPRJP1.node[14].app 	dropPk:count 	4
attr interpolationmode  none
attr source  dropPk
attr title  "packets dropped, count"
scalar scenarioPRJP1.node[14].app 	dropPk:sum(packetBytes) 	2048
attr interpolationmode  none
attr source  dropPk
attr title  "packets dropped, sum(packetBytes)"
scalar scenarioPRJP1.node[14].app 	outOfOrderPk:count 	4673
attr interpolationmode  none
attr source  outOfOrderPk
attr title  "packets received out of order, count"
scalar scenarioPRJP1.node[14].app 	outOfOrderPk:sum(packetBytes) 	2392576
attr interpolationmode  none
attr source  outOfOrderPk
attr title  "packets received out of order, sum(packetBytes)"
scalar scenarioPRJP1.node[14].app 	rcvdPk:count 	2828
attr interpolationmode  none
attr source  rcvdPk
attr title  "packets received, count"
scalar scenarioPRJP1.node[14].app 	rcvdPk:sum(packetBytes) 	1447936
attr interpolationmode  none
attr source  rcvdPk
attr title  "packets received, sum(packetBytes)"
statistic scenarioPRJP1.node[14].app 	endToEndDelay:histogram
field count 2828
field mean 3.1830844901396
field stddev 2.5600699040725
field sum 9001.7629381147
field sqrsum 47181.411014363
field min 0.001197615064
field max 17.659813560277
attr interpolationmode  none
attr source  messageAge(rcvdPk)
attr title  "delay, histogram"
attr unit  s
bin	-INF	0
bin	-3.663042404774	0
bin	-3.1744770687956	0
bin	-2.6859117328172	0
bin	-2.1973463968388	0
bin	-1.7087810608604	0
bin	-1.220215724882	0
bin	-0.7316503889036	0
bin	-0.2430850529252	120
bin	0.2454802830532	196
bin	0.7340456190316	283
bin	1.22261095501	323
bin	1.7111762909884	304
bin	2.1997416269668	260
bin	2.6883069629452	240
bin	3.1768722989236	192
bin	3.665437634902	160
bin	4.1540029708804	148
bin	4.6425683068588	117
bin	5.1311336428372	91
bin	5.6196989788156	65
bin	6.108264314794	51
bin	6.5968296507724	44
bin	7.0853949867508	45
bin	7.5739603227292	32
bin	8.0625256587076	24
bin	8.551090994686	26
bin	9.0396563306644	16
bin	9.5282216666428	16
bin	10.016787002621	16
bin	10.5053523386	11
bin	10.993917674578	48
scalar scenarioPRJP1.node[14].app 	sentPk:count 	5006
attr interpolationmode  none
attr source  sentPk
attr title  "packets sent, count"
scalar scenarioPRJP1.node[14].app 	sentPk:sum(packetBytes) 	2563072
attr interpolationmode  none
attr source  sentPk
attr title  "packets sent, sum(packetBytes)"
scalar scenarioPRJP1.node[14].udp 	droppedPkBadChecksum:count 	0
attr interpolationmode  none
attr title  "packets dropped (checksum error), count"
scalar scenarioPRJP1.node[14].udp 	droppedPkWrongPort:count 	25
attr interpolationmode  none
attr title  "packets dropped (wrong port), count"
scalar scenarioPRJP1.node[14].udp 	passedUpPk:count 	7505
attr interpolationmode  none
attr title  "packets passed up, count"
scalar scenarioPRJP1.node[14].udp 	rcvdPk:count 	7530
attr interpolationmode  none
attr source  rcvdPk
attr title  "packets received, count"
scalar scenarioPRJP1.node[14].udp 	rcvdPk:sum(packetBytes) 	3915600
attr interpolationmode  none
attr source  rcvdPk
attr title  "packets received, sum(packetBytes)"
scalar scenarioPRJP1.node[14].udp 	sentPk:count 	5006
attr interpolationmode  none
attr source  sentPk
attr title  "packets sent, count"
scalar scenarioPRJP1.node[14].udp 	sentPk:sum(packetBytes) 	2603120
attr interpolationmode  none
attr source  sentPk
attr title  "packets sent, sum(packetBytes)"
scalar scenarioPRJP1.node[14].networkLayer.arp 	failedARPResolution:count 	88
attr title  "ARP failed resolutions, count"
scalar scenarioPRJP1.node[14].networkLayer.arp 	completedARPResolution:count 	2684
attr title  "ARP completed resolutions, count"
scalar scenarioPRJP1.node[14].networkLayer.arp 	initiatedARPResolution:count 	168
attr title  "ARP initiated resolutions, count"
scalar scenarioPRJP1.node[14].networkLayer.arp 	sentReply:count 	98
attr title  "ARP replies sent, count"
scalar scenarioPRJP1.node[14].networkLayer.arp 	sentReq:count 	398
attr title  "ARP request sent, count"
scalar scenarioPRJP1.node[14].mobility 	startTime 	2.5
scalar scenarioPRJP1.node[14].mobility 	totalTime 	1897.5
scalar scenarioPRJP1.node[14].mobility 	stopTime 	1900
scalar scenarioPRJP1.node[14].mobility 	minSpeed 	2.4754226022386e-13
scalar scenarioPRJP1.node[14].mobility 	maxSpeed 	17.842155084513
scalar scenarioPRJP1.node[14].mobility 	totalDistance 	19356.190558416
scalar scenarioPRJP1.node[14].mobility 	totalCO2Emission 	5075.2801894196
scalar scenarioPRJP1.node[14].wlan.mgmt 	dataQueueLen:max 	100
attr interpolationmode  sample-hold
attr title  "data queue length, max"
scalar scenarioPRJP1.node[14].wlan.mgmt 	dataQueueLen:timeavg 	18.003195482993
attr interpolationmode  sample-hold
attr title  "data queue length, timeavg"
scalar scenarioPRJP1.node[14].wlan.mgmt 	dropPkByQueue:count 	927
attr interpolationmode  none
attr source  dropPkByQueue
attr title  "packets dropped by queue, count"
scalar scenarioPRJP1.node[14].wlan.mgmt 	dropPkByQueue:sum(packetBytes) 	281104
attr interpolationmode  none
attr source  dropPkByQueue
attr title  "packets dropped by queue, sum(packetBytes)"
scalar scenarioPRJP1.node[14].wlan.mac 	"number of received packets" 	55127
scalar scenarioPRJP1.node[14].wlan.mac 	"number of collisions" 	967765
scalar scenarioPRJP1.node[14].wlan.mac 	"number of internal collisions" 	47
scalar scenarioPRJP1.node[14].wlan.mac 	"number of retry for AC 0" 	99446
scalar scenarioPRJP1.node[14].wlan.mac 	"number of retry for AC 1" 	120
scalar scenarioPRJP1.node[14].wlan.mac 	"number of retry for AC 2" 	0
scalar scenarioPRJP1.node[14].wlan.mac 	"number of retry for AC 3" 	0
scalar scenarioPRJP1.node[14].wlan.mac 	"sent and received bits" 	95255968
scalar scenarioPRJP1.node[14].wlan.mac 	"sent packet within AC 0" 	46505
scalar scenarioPRJP1.node[14].wlan.mac 	"sent packet within AC 1" 	371
scalar scenarioPRJP1.node[14].wlan.mac 	"sent packet within AC 2" 	0
scalar scenarioPRJP1.node[14].wlan.mac 	"sent packet within AC 3" 	0
scalar scenarioPRJP1.node[14].wlan.mac 	"sent in TXOP " 	0
scalar scenarioPRJP1.node[14].wlan.mac 	"sentWithoutRetry AC 0" 	23982
scalar scenarioPRJP1.node[14].wlan.mac 	"sentWithoutRetry AC 1" 	297
scalar scenarioPRJP1.node[14].wlan.mac 	"sentWithoutRetry AC 2" 	0
scalar scenarioPRJP1.node[14].wlan.mac 	"sentWithoutRetry AC 3" 	0
scalar scenarioPRJP1.node[14].wlan.mac 	"numGivenUp AC 0" 	8039
scalar scenarioPRJP1.node[14].wlan.mac 	"numGivenUp AC 1" 	0
scalar scenarioPRJP1.node[14].wlan.mac 	"numGivenUp AC 2" 	0
scalar scenarioPRJP1.node[14].wlan.mac 	"numGivenUp AC 3" 	0
scalar scenarioPRJP1.node[14].wlan.mac 	"numDropped AC 0" 	30174
scalar scenarioPRJP1.node[14].wlan.mac 	"numDropped AC 1" 	53
scalar scenarioPRJP1.node[14].wlan.mac 	"numDropped AC 2" 	0
scalar scenarioPRJP1.node[14].wlan.mac 	"numDropped AC 3" 	0
scalar scenarioPRJP1.node[14].wlan.mac 	rcvdPkFromLL:count 	3497415
attr interpolationmode  none
attr source  packetReceivedFromLower
attr title  "packets received from lower layer, count"
scalar scenarioPRJP1.node[14].wlan.mac 	rcvdPkFromLL:sum(packetBytes) 	703840222
attr interpolationmode  none
attr source  packetReceivedFromLower
attr title  "packets received from lower layer, sum(packetBytes)"
scalar scenarioPRJP1.node[14].wlan.mac 	sentDownPk:count 	212714
attr interpolationmode  none
attr source  packetSentToLower
attr title  "packets sent to lower layer, count"
scalar scenarioPRJP1.node[14].wlan.mac 	sentDownPk:sum(packetBytes) 	46324590
attr interpolationmode  none
attr source  packetSentToLower
attr title  "packets sent to lower layer, sum(packetBytes)"
scalar scenarioPRJP1.node[14].wlan.mac 	rcvdPkFromHL:count 	88295
attr interpolationmode  none
attr source  packetReceivedFromUpper
attr title  "packets received from higher layer, count"
scalar scenarioPRJP1.node[14].wlan.mac 	rcvdPkFromHL:sum(packetBytes) 	22359180
attr interpolationmode  none
attr source  packetReceivedFromUpper
attr title  "packets received from higher layer, sum(packetBytes)"
scalar scenarioPRJP1.node[14].wlan.mac 	passedUpPk:count 	75854
attr interpolationmode  none
attr source  packetSentToUpper
attr title  "packets passed to higher layer, count"
scalar scenarioPRJP1.node[14].wlan.mac 	passedUpPk:sum(packetBytes) 	14771308
attr interpolationmode  none
attr source  packetSentToUpper
attr title  "packets passed to higher layer, sum(packetBytes)"
statistic scenarioPRJP1.node[14].wlan.radio 	radioChannel:histogram
field count 1
field mean 3
field stddev -nan
field sum 3
field sqrsum 9
field min 3
field max 3
attr interpolationmode  sample-hold
attr source  radioChannelChanged
attr title  "Radio channel, histogram"
bin	-INF	0
bin	2	0
bin	3	1
bin	4	0
scalar scenarioPRJP1.node[14].wlan.radio 	transmissionState:count 	850856
attr interpolationmode  sample-hold
attr source  transmissionStateChanged
attr title  "Radio transmission state, count"
scalar scenarioPRJP1.node[14].wlan.radio 	receptionState:count 	7980665
attr interpolationmode  sample-hold
attr source  receptionStateChanged
attr title  "Radio reception state, count"
scalar scenarioPRJP1.node[14].wlan.radio 	radioMode:count 	425430
attr interpolationmode  sample-hold
attr source  radioModeChanged
attr title  "Radio mode, count"
statistic scenarioPRJP1.node[14].wlan.radio 	symbolErrorRate:histogram
field count 0
field mean -nan
field stddev -nan
field sum 0
field sqrsum 0
field min -nan
field max -nan
attr source  symbolErrorRate
attr title  "Symbol error rate, histogram"
bin	-INF	0
bin	-0.5	0
bin	-0.46666666666667	0
bin	-0.43333333333333	0
bin	-0.4	0
bin	-0.36666666666667	0
bin	-0.33333333333333	0
bin	-0.3	0
bin	-0.26666666666667	0
bin	-0.23333333333333	0
bin	-0.2	0
bin	-0.16666666666667	0
bin	-0.13333333333333	0
bin	-0.1	0
bin	-0.066666666666667	0
bin	-0.033333333333333	0
bin	0	0
bin	0.033333333333333	0
bin	0.066666666666667	0
bin	0.1	0
bin	0.13333333333333	0
bin	0.16666666666667	0
bin	0.2	0
bin	0.23333333333333	0
bin	0.26666666666667	0
bin	0.3	0
bin	0.33333333333333	0
bin	0.36666666666667	0
bin	0.4	0
bin	0.43333333333333	0
bin	0.46666666666667	0
bin	0.5	0
statistic scenarioPRJP1.node[14].wlan.radio 	bitErrorRate:histogram
field count 0
field mean -nan
field stddev -nan
field sum 0
field sqrsum 0
field min -nan
field max -nan
attr source  bitErrorRate
attr title  "Bit error rate, histogram"
bin	-INF	0
bin	-0.5	0
bin	-0.46666666666667	0
bin	-0.43333333333333	0
bin	-0.4	0
bin	-0.36666666666667	0
bin	-0.33333333333333	0
bin	-0.3	0
bin	-0.26666666666667	0
bin	-0.23333333333333	0
bin	-0.2	0
bin	-0.16666666666667	0
bin	-0.13333333333333	0
bin	-0.1	0
bin	-0.066666666666667	0
bin	-0.033333333333333	0
bin	0	0
bin	0.033333333333333	0
bin	0.066666666666667	0
bin	0.1	0
bin	0.13333333333333	0
bin	0.16666666666667	0
bin	0.2	0
bin	0.23333333333333	0
bin	0.26666666666667	0
bin	0.3	0
bin	0.33333333333333	0
bin	0.36666666666667	0
bin	0.4	0
bin	0.43333333333333	0
bin	0.46666666666667	0
bin	0.5	0
statistic scenarioPRJP1.node[14].wlan.radio 	packetErrorRate:histogram
field count 3497415
field mean 0.27178378990075
field stddev 0.44063607674869
field sum 950540.70355574
field sqrsum 937399.98917755
field min 0
field max 1
attr source  packetErrorRate
attr title  "Packet error rate, histogram"
bin	-INF	0
bin	-0.5	0
bin	-0.43333333333333	0
bin	-0.36666666666667	0
bin	-0.3	0
bin	-0.23333333333333	0
bin	-0.16666666666667	0
bin	-0.1	0
bin	-0.033333333333333	2494087
bin	0.033333333333333	20797
bin	0.1	10282
bin	0.16666666666667	7068
bin	0.23333333333333	5754
bin	0.3	4753
bin	0.36666666666667	4271
bin	0.43333333333333	3796
bin	0.5	3576
bin	0.56666666666667	3507
bin	0.63333333333333	3564
bin	0.7	3545
bin	0.76666666666667	3999
bin	0.83333333333333	4730
bin	0.9	7433
bin	0.96666666666667	916253
bin	1.0333333333333	0
bin	1.1	0
bin	1.1666666666667	0
bin	1.2333333333333	0
bin	1.3	0
bin	1.3666666666667	0
bin	1.4333333333333	0
bin	1.5	0
statistic scenarioPRJP1.node[14].wlan.radio 	minSNIR:histogram
field count 3497415
field mean 42454.940491003
field stddev 823192.92187817
field sum 148482545697.34
field sqrsum 2.3763144767746e+18
field min 7.2005205120596e-06
field max 199846802.20397
attr source  minSNIR
attr title  "Min SNIR, histogram"
bin	-INF	0
bin	-1017.731122308	0
bin	-882.03336746653	0
bin	-746.33561262508	0
bin	-610.63785778364	0
bin	-474.9401029422	0
bin	-339.24234810075	0
bin	-203.54459325931	0
bin	-67.846838417864	1359181
bin	67.850916423581	17757
bin	203.54867126502	36133
bin	339.24642610647	185410
bin	474.94418094791	172514
bin	610.64193578936	154825
bin	746.3396906308	135455
bin	882.03744547225	117282
bin	1017.7352003137	102163
bin	1153.4329551551	89991
bin	1289.1307099966	79562
bin	1424.828464838	70186
bin	1560.5262196795	62532
bin	1696.2239745209	56018
bin	1831.9217293624	50547
bin	1967.6194842038	45712
bin	2103.3172390452	41395
bin	2239.0149938867	37967
bin	2374.7127487281	34827
bin	2510.4105035696	31485
bin	2646.108258411	29479
bin	2781.8060132525	27257
bin	2917.5037680939	25515
bin	3053.2015229354	534222
scalar scenarioPRJP1.node[14].lo0.lo 	droppedPkBitError:count 	0
attr interpolationmode  none
attr source  dropPkBitError
attr title  "packets dropped/bit error, count"
scalar scenarioPRJP1.node[14].lo0.lo 	droppedPkBitError:sum(packetBytes) 	0
attr interpolationmode  none
attr source  dropPkBitError
attr title  "packets dropped/bit error, sum(packetBytes)"
scalar scenarioPRJP1.node[14].lo0.lo 	rcvdPkFromHL:count 	7617
attr interpolationmode  none
attr source  packetReceivedFromUpper
attr title  "packets received from higher layer, count"
scalar scenarioPRJP1.node[14].lo0.lo 	rcvdPkFromHL:sum(packetBytes) 	3923980
attr interpolationmode  none
attr source  packetReceivedFromUpper
attr title  "packets received from higher layer, sum(packetBytes)"
scalar scenarioPRJP1.node[14].lo0.lo 	passedUpPk:count 	7617
attr interpolationmode  none
attr source  packetSentToUpper
attr title  "packets passed to higher layer, count"
scalar scenarioPRJP1.node[14].lo0.lo 	passedUpPk:sum(packetBytes) 	3923980
attr interpolationmode  none
attr source  packetSentToUpper
attr title  "packets passed to higher layer, sum(packetBytes)"
scalar scenarioPRJP1.node[2].app 	"Total sent" 	5021
scalar scenarioPRJP1.node[2].app 	"Total received" 	2813
scalar scenarioPRJP1.node[2].app 	"Total deleted" 	2
scalar scenarioPRJP1.node[2].app 	dropPk:count 	2
attr interpolationmode  none
attr source  dropPk
attr title  "packets dropped, count"
scalar scenarioPRJP1.node[2].app 	dropPk:sum(packetBytes) 	1024
attr interpolationmode  none
attr source  dropPk
attr title  "packets dropped, sum(packetBytes)"
scalar scenarioPRJP1.node[2].app 	outOfOrderPk:count 	5209
attr interpolationmode  none
attr source  outOfOrderPk
attr title  "packets received out of order, count"
scalar scenarioPRJP1.node[2].app 	outOfOrderPk:sum(packetBytes) 	2667008
attr interpolationmode  none
attr source  outOfOrderPk
attr title  "packets received out of order, sum(packetBytes)"
scalar scenarioPRJP1.node[2].app 	rcvdPk:count 	2813
attr interpolationmode  none
attr source  rcvdPk
attr title  "packets received, count"
scalar scenarioPRJP1.node[2].app 	rcvdPk:sum(packetBytes) 	1440256
attr interpolationmode  none
attr source  rcvdPk
attr title  "packets received, sum(packetBytes)"
statistic scenarioPRJP1.node[2].app 	endToEndDelay:histogram
field count 2813
field mean 3.0829916448957
field stddev 2.4878987884736
field sum 8672.4554970915
field sqrsum 44142.376591571
field min 0.001091348317
field max 19.20985193203
attr interpolationmode  none
attr source  messageAge(rcvdPk)
attr title  "delay, histogram"
attr unit  s
bin	-INF	0
bin	-2.814908783331	0
bin	-2.429352700219	0
bin	-2.043796617107	0
bin	-1.658240533995	0
bin	-1.272684450883	0
bin	-0.887128367771	0
bin	-0.501572284659	0
bin	-0.116016201547	172
bin	0.269539881565	177
bin	0.655095964677	209
bin	1.040652047789	243
bin	1.426208130901	211
bin	1.811764214013	225
bin	2.197320297125	217
bin	2.582876380237	171
bin	2.968432463349	169
bin	3.353988546461	134
bin	3.739544629573	144
bin	4.125100712685	109
bin	4.510656795797	105
bin	4.896212878909	73
bin	5.281768962021	74
bin	5.667325045133	63
bin	6.052881128245	52
bin	6.438437211357	34
bin	6.823993294469	38
bin	7.209549377581	31
bin	7.595105460693	24
bin	7.980661543805	31
bin	8.366217626917	18
bin	8.751773710029	89
scalar scenarioPRJP1.node[2].app 	sentPk:count 	5021
attr interpolationmode  none
attr source  sentPk
attr title  "packets sent, count"
scalar scenarioPRJP1.node[2].app 	sentPk:sum(packetBytes) 	2570752
attr interpolationmode  none
attr source  sentPk
attr title  "packets sent, sum(packetBytes)"
scalar scenarioPRJP1.node[2].udp 	droppedPkBadChecksum:count 	0
attr interpolationmode  none
attr title  "packets dropped (checksum error), count"
scalar scenarioPRJP1.node[2].udp 	droppedPkWrongPort:count 	18
attr interpolationmode  none
attr title  "packets dropped (wrong port), count"
scalar scenarioPRJP1.node[2].udp 	passedUpPk:count 	8024
attr interpolationmode  none
attr title  "packets passed up, count"
scalar scenarioPRJP1.node[2].udp 	rcvdPk:count 	8042
attr interpolationmode  none
attr source  rcvdPk
attr title  "packets received, count"
scalar scenarioPRJP1.node[2].udp 	rcvdPk:sum(packetBytes) 	4181840
attr interpolationmode  none
attr source  rcvdPk
attr title  "packets received, sum(packetBytes)"
scalar scenarioPRJP1.node[2].udp 	sentPk:count 	5021
attr interpolationmode  none
attr source  sentPk
attr title  "packets sent, count"
scalar scenarioPRJP1.node[2].udp 	sentPk:sum(packetBytes) 	2610920
attr interpolationmode  none
attr source  sentPk
attr title  "packets sent, sum(packetBytes)"
scalar scenarioPRJP1.node[2].networkLayer.arp 	failedARPResolution:count 	83
attr title  "ARP failed resolutions, count"
scalar scenarioPRJP1.node[2].networkLayer.arp 	completedARPResolution:count 	2698
attr title  "ARP completed resolutions, count"
scalar scenarioPRJP1.node[2].networkLayer.arp 	initiatedARPResolution:count 	152
attr title  "ARP initiated resolutions, count"
scalar scenarioPRJP1.node[2].networkLayer.arp 	sentReply:count 	77
attr title  "ARP replies sent, count"
scalar scenarioPRJP1.node[2].networkLayer.arp 	sentReq:count 	372
attr title  "ARP request sent, count"
scalar scenarioPRJP1.node[2].mobility 	startTime 	0.1
scalar scenarioPRJP1.node[2].mobility 	totalTime 	1899.9
scalar scenarioPRJP1.node[2].mobility 	stopTime 	1900
scalar scenarioPRJP1.node[2].mobility 	minSpeed 	2.4756860404551e-13
scalar scenarioPRJP1.node[2].mobility 	maxSpeed 	20.21930291127
scalar scenarioPRJP1.node[2].mobility 	totalDistance 	20865.784343864
scalar scenarioPRJP1.node[2].mobility 	totalCO2Emission 	5610.1898585857
scalar scenarioPRJP1.node[2].wlan.mgmt 	dataQueueLen:max 	100
attr interpolationmode  sample-hold
attr title  "data queue length, max"
scalar scenarioPRJP1.node[2].wlan.mgmt 	dataQueueLen:timeavg 	25.450153073555
attr interpolationmode  sample-hold
attr title  "data queue length, timeavg"
scalar scenarioPRJP1.node[2].wlan.mgmt 	dropPkByQueue:count 	3107
attr interpolationmode  none
attr source  dropPkByQueue
attr title  "packets dropped by queue, count"
scalar scenarioPRJP1.node[2].wlan.mgmt 	dropPkByQueue:sum(packetBytes) 	1081560
attr interpolationmode  none
attr source  dropPkByQueue
attr title  "packets dropped by queue, sum(packetBytes)"
scalar scenarioPRJP1.node[2].wlan.mac 	"number of received packets" 	63482
scalar scenarioPRJP1.node[2].wlan.mac 	"number of collisions" 	965526
scalar scenarioPRJP1.node[2].wlan.mac 	"number of internal collisions" 	20
scalar scenarioPRJP1.node[2].wlan.mac 	"number of retry for AC 0" 	91772
scalar scenarioPRJP1.node[2].wlan.mac 	"number of retry for AC 1" 	89
scalar scenarioPRJP1.node[2].wlan.mac 	"number of retry for AC 2" 	0
scalar scenarioPRJP1.node[2].wlan.mac 	"number of retry for AC 3" 	0
scalar scenarioPRJP1.node[2].wlan.mac 	"sent and received bits" 	132595264
scalar scenarioPRJP1.node[2].wlan.mac 	"sent packet within AC 0" 	60304
scalar scenarioPRJP1.node[2].wlan.mac 	"sent packet within AC 1" 	54
scalar scenarioPRJP1.node[2].wlan.mac 	"sent packet within AC 2" 	0
scalar scenarioPRJP1.node[2].wlan.mac 	"sent packet within AC 3" 	0
scalar scenarioPRJP1.node[2].wlan.mac 	"sent in TXOP " 	0
scalar scenarioPRJP1.node[2].wlan.mac 	"sentWithoutRetry AC 0" 	33503
scalar scenarioPRJP1.node[2].wlan.mac 	"sentWithoutRetry AC 1" 	32
scalar scenarioPRJP1.node[2].wlan.mac 	"sentWithoutRetry AC 2" 	0
scalar scenarioPRJP1.node[2].wlan.mac 	"sentWithoutRetry AC 3" 	0
scalar scenarioPRJP1.node[2].wlan.mac 	"numGivenUp AC 0" 	5733
scalar scenarioPRJP1.node[2].wlan.mac 	"numGivenUp AC 1" 	6
scalar scenarioPRJP1.node[2].wlan.mac 	"numGivenUp AC 2" 	0
scalar scenarioPRJP1.node[2].wlan.mac 	"numGivenUp AC 3" 	0
scalar scenarioPRJP1.node[2].wlan.mac 	"numDropped AC 0" 	32202
scalar scenarioPRJP1.node[2].wlan.mac 	"numDropped AC 1" 	22
scalar scenarioPRJP1.node[2].wlan.mac 	"numDropped AC 2" 	0
scalar scenarioPRJP1.node[2].wlan.mac 	"numDropped AC 3" 	0
scalar scenarioPRJP1.node[2].wlan.mac 	rcvdPkFromLL:count 	3560357
attr interpolationmode  none
attr source  packetReceivedFromLower
attr title  "packets received from lower layer, count"
scalar scenarioPRJP1.node[2].wlan.mac 	rcvdPkFromLL:sum(packetBytes) 	712126832
attr interpolationmode  none
attr source  packetReceivedFromLower
attr title  "packets received from lower layer, sum(packetBytes)"
scalar scenarioPRJP1.node[2].wlan.mac 	sentDownPk:count 	223692
attr interpolationmode  none
attr source  packetSentToLower
attr title  "packets sent to lower layer, count"
scalar scenarioPRJP1.node[2].wlan.mac 	sentDownPk:sum(packetBytes) 	50232112
attr interpolationmode  none
attr source  packetSentToLower
attr title  "packets sent to lower layer, sum(packetBytes)"
scalar scenarioPRJP1.node[2].wlan.mac 	rcvdPkFromHL:count 	100593
attr interpolationmode  none
attr source  packetReceivedFromUpper
attr title  "packets received from higher layer, count"
scalar scenarioPRJP1.node[2].wlan.mac 	rcvdPkFromHL:sum(packetBytes) 	28110300
attr interpolationmode  none
attr source  packetReceivedFromUpper
attr title  "packets received from higher layer, sum(packetBytes)"
scalar scenarioPRJP1.node[2].wlan.mac 	passedUpPk:count 	84553
[...]
attr interpolationmode  none
attr source  packetSentToUpper
attr title  "packets passed to higher layer, sum(packetBytes)"
statistic scenarioPRJP1.node[12].wlan.radio 	radioChannel:histogram
field count 1
field mean 3
field stddev -nan
field sum 3
field sqrsum 9
field min 3
field max 3
attr interpolationmode  sample-hold
attr source  radioChannelChanged
attr title  "Radio channel, histogram"
bin	-INF	0
bin	2	0
bin	3	1
bin	4	0
scalar scenarioPRJP1.node[12].wlan.radio 	transmissionState:count 	890044
attr interpolationmode  sample-hold
attr source  transmissionStateChanged
attr title  "Radio transmission state, count"
scalar scenarioPRJP1.node[12].wlan.radio 	receptionState:count 	8080046
attr interpolationmode  sample-hold
attr source  receptionStateChanged
attr title  "Radio reception state, count"
scalar scenarioPRJP1.node[12].wlan.radio 	radioMode:count 	445024
attr interpolationmode  sample-hold
attr source  radioModeChanged
attr title  "Radio mode, count"
statistic scenarioPRJP1.node[12].wlan.radio 	symbolErrorRate:histogram
field count 0
field mean -nan
field stddev -nan
field sum 0
field sqrsum 0
field min -nan
field max -nan
attr source  symbolErrorRate
attr title  "Symbol error rate, histogram"
bin	-INF	0
bin	-0.5	0
bin	-0.46666666666667	0
bin	-0.43333333333333	0
bin	-0.4	0
bin	-0.36666666666667	0
bin	-0.33333333333333	0
bin	-0.3	0
bin	-0.26666666666667	0
bin	-0.23333333333333	0
bin	-0.2	0
bin	-0.16666666666667	0
bin	-0.13333333333333	0
bin	-0.1	0
bin	-0.066666666666667	0
bin	-0.033333333333333	0
bin	0	0
bin	0.033333333333333	0
bin	0.066666666666667	0
bin	0.1	0
bin	0.13333333333333	0
bin	0.16666666666667	0
bin	0.2	0
bin	0.23333333333333	0
bin	0.26666666666667	0
bin	0.3	0
bin	0.33333333333333	0
bin	0.36666666666667	0
bin	0.4	0
bin	0.43333333333333	0
bin	0.46666666666667	0
bin	0.5	0
statistic scenarioPRJP1.node[12].wlan.radio 	bitErrorRate:histogram
field count 0
field mean -nan
field stddev -nan
field sum 0
field sqrsum 0
field min -nan
field max -nan
attr source  bitErrorRate
attr title  "Bit error rate, histogram"
bin	-INF	0
bin	-0.5	0
bin	-0.46666666666667	0
bin	-0.43333333333333	0
bin	-0.4	0
bin	-0.36666666666667	0
bin	-0.33333333333333	0
bin	-0.3	0
bin	-0.26666666666667	0
bin	-0.23333333333333	0
bin	-0.2	0
bin	-0.16666666666667	0
bin	-0.13333333333333	0
bin	-0.1	0
bin	-0.066666666666667	0
bin	-0.033333333333333	0
bin	0	0
bin	0.033333333333333	0
bin	0.066666666666667	0
bin	0.1	0
bin	0.13333333333333	0
bin	0.16666666666667	0
bin	0.2	0
bin	0.23333333333333	0
bin	0.26666666666667	0
bin	0.3	0
bin	0.33333333333333	0
bin	0.36666666666667	0
bin	0.4	0
bin	0.43333333333333	0
bin	0.46666666666667	0
bin	0.5	0
statistic scenarioPRJP1.node[12].wlan.radio 	packetErrorRate:histogram
field count 3535930
field mean 0.26650439399444
field stddev 0.43802570887133
field sum 942340.88185677
field sqrsum 929564.38362397
field min 0
field max 1
attr source  packetErrorRate
attr title  "Packet error rate, histogram"
bin	-INF	0
bin	-0.5	0
bin	-0.43333333333333	0
bin	-0.36666666666667	0
bin	-0.3	0
bin	-0.23333333333333	0
bin	-0.16666666666667	0
bin	-0.1	0
bin	-0.033333333333333	2542069
bin	0.033333333333333	20373
bin	0.1	10042
bin	0.16666666666667	7060
bin	0.23333333333333	5469
bin	0.3	4637
bin	0.36666666666667	4101
bin	0.43333333333333	3756
bin	0.5	3483
bin	0.56666666666667	3309
bin	0.63333333333333	3332
bin	0.7	3592
bin	0.76666666666667	3826
bin	0.83333333333333	4732
bin	0.9	7054
bin	0.96666666666667	909095
bin	1.0333333333333	0
bin	1.1	0
bin	1.1666666666667	0
bin	1.2333333333333	0
bin	1.3	0
bin	1.3666666666667	0
bin	1.4333333333333	0
bin	1.5	0
statistic scenarioPRJP1.node[12].wlan.radio 	minSNIR:histogram
field count 3535930
field mean 69945.360508123
field stddev 1100973.8620934
field sum 247321898581.49
field sqrsum 4.3033521787388e+18
field min 1.3176217395645e-06
field max 202644979.42993
attr source  minSNIR
attr title  "Min SNIR, histogram"
bin	-INF	0
bin	-13021442.557107	0
bin	-11285250.211072	0
bin	-9549057.8650358	0
bin	-7812865.5189999	0
bin	-6076673.1729641	0
bin	-4340480.8269283	0
bin	-2604288.4808924	0
bin	-868096.13485661	3502213
bin	868096.21117922	14614
bin	2604288.5572151	5210
bin	4340480.9032509	2995
bin	6076673.2492867	2168
bin	7812865.5953225	1645
bin	9549057.9413584	1324
bin	11285250.287394	990
bin	13021442.63343	828
bin	14757634.979466	663
bin	16493827.325502	531
bin	18230019.671538	441
bin	19966212.017573	333
bin	21702404.363609	281
bin	23438596.709645	251
bin	25174789.055681	211
bin	26910981.401717	155
bin	28647173.747753	136
bin	30383366.093788	107
bin	32119558.439824	93
bin	33855750.78586	98
bin	35591943.131896	81
bin	37328135.477932	70
bin	39064327.823967	492
scalar scenarioPRJP1.node[12].lo0.lo 	droppedPkBitError:count 	0
attr interpolationmode  none
attr source  dropPkBitError
attr title  "packets dropped/bit error, count"
scalar scenarioPRJP1.node[12].lo0.lo 	droppedPkBitError:sum(packetBytes) 	0
attr interpolationmode  none
attr source  dropPkBitError
attr title  "packets dropped/bit error, sum(packetBytes)"
scalar scenarioPRJP1.node[12].lo0.lo 	rcvdPkFromHL:count 	8075
attr interpolationmode  none
attr source  packetReceivedFromUpper
attr title  "packets received from higher layer, count"
scalar scenarioPRJP1.node[12].lo0.lo 	rcvdPkFromHL:sum(packetBytes) 	4178020
attr interpolationmode  none
attr source  packetReceivedFromUpper
attr title  "packets received from higher layer, sum(packetBytes)"
scalar scenarioPRJP1.node[12].lo0.lo 	passedUpPk:count 	8075
attr interpolationmode  none
attr source  packetSentToUpper
attr title  "packets passed to higher layer, count"
scalar scenarioPRJP1.node[12].lo0.lo 	passedUpPk:sum(packetBytes) 	4178020
attr interpolationmode  none
attr source  packetSentToUpper
attr title  "packets passed to higher layer, sum(packetBytes)"
scalar scenarioPRJP1.node[22].app 	"Total sent" 	5030
scalar scenarioPRJP1.node[22].app 	"Total received" 	2816
scalar scenarioPRJP1.node[22].app 	"Total deleted" 	0
scalar scenarioPRJP1.node[22].app 	dropPk:count 	0
attr interpolationmode  none
attr source  dropPk
attr title  "packets dropped, count"
scalar scenarioPRJP1.node[22].app 	dropPk:sum(packetBytes) 	0
attr interpolationmode  none
attr source  dropPk
attr title  "packets dropped, sum(packetBytes)"
scalar scenarioPRJP1.node[22].app 	outOfOrderPk:count 	4400
attr interpolationmode  none
attr source  outOfOrderPk
attr title  "packets received out of order, count"
scalar scenarioPRJP1.node[22].app 	outOfOrderPk:sum(packetBytes) 	2252800
attr interpolationmode  none
attr source  outOfOrderPk
attr title  "packets received out of order, sum(packetBytes)"
scalar scenarioPRJP1.node[22].app 	rcvdPk:count 	2816
attr interpolationmode  none
attr source  rcvdPk
attr title  "packets received, count"
scalar scenarioPRJP1.node[22].app 	rcvdPk:sum(packetBytes) 	1441792
attr interpolationmode  none
attr source  rcvdPk
attr title  "packets received, sum(packetBytes)"
statistic scenarioPRJP1.node[22].app 	endToEndDelay:histogram
field count 2816
field mean 3.0252716702774
field stddev 2.4211685227529
field sum 8519.1650235011
field sqrsum 42274.479098844
field min 0.001215968159
field max 17.19222102743
attr interpolationmode  none
attr source  messageAge(rcvdPk)
attr title  "delay, histogram"
attr unit  s
bin	-INF	0
bin	-4.9539930229175	0
bin	-4.2930214939513	0
bin	-3.6320499649851	0
bin	-2.9710784360189	0
bin	-2.3101069070527	0
bin	-1.6491353780865	0
bin	-0.9881638491203	0
bin	-0.3271923201541	187
bin	0.3337792088121	334
bin	0.9947507377783	411
bin	1.6557222667445	395
bin	2.3166937957107	337
bin	2.9776653246769	271
bin	3.6386368536431	222
bin	4.2996083826093	168
bin	4.9605799115755	122
bin	5.6215514405417	107
bin	6.2825229695079	68
bin	6.9434944984741	48
bin	7.6044660274403	36
bin	8.2654375564065	36
bin	8.9264090853727	14
bin	9.5873806143389	12
bin	10.248352143305	10
bin	10.909323672271	10
bin	11.570295201237	11
bin	12.231266730204	4
bin	12.89223825917	3
bin	13.553209788136	3
bin	14.214181317102	2
bin	14.875152846068	5
scalar scenarioPRJP1.node[22].app 	sentPk:count 	5030
attr interpolationmode  none
attr source  sentPk
attr title  "packets sent, count"
scalar scenarioPRJP1.node[22].app 	sentPk:sum(packetBytes) 	2575360
attr interpolationmode  none
attr source  sentPk
attr title  "packets sent, sum(packetBytes)"
scalar scenarioPRJP1.node[22].udp 	droppedPkBadChecksum:count 	0
attr interpolationmode  none
attr title  "packets dropped (checksum error), count"
scalar scenarioPRJP1.node[22].udp 	droppedPkWrongPort:count 	41
attr interpolationmode  none
attr title  "packets dropped (wrong port), count"
scalar scenarioPRJP1.node[22].udp 	passedUpPk:count 	7216
attr interpolationmode  none
attr title  "packets passed up, count"
scalar scenarioPRJP1.node[22].udp 	rcvdPk:count 	7257
attr interpolationmode  none
attr source  rcvdPk
attr title  "packets received, count"
scalar scenarioPRJP1.node[22].udp 	rcvdPk:sum(packetBytes) 	3773640
attr interpolationmode  none
attr source  rcvdPk
attr title  "packets received, sum(packetBytes)"
scalar scenarioPRJP1.node[22].udp 	sentPk:count 	5030
attr interpolationmode  none
attr source  sentPk
attr title  "packets sent, count"
scalar scenarioPRJP1.node[22].udp 	sentPk:sum(packetBytes) 	2615600
attr interpolationmode  none
attr source  sentPk
attr title  "packets sent, sum(packetBytes)"
scalar scenarioPRJP1.node[22].networkLayer.arp 	failedARPResolution:count 	95
attr title  "ARP failed resolutions, count"
scalar scenarioPRJP1.node[22].networkLayer.arp 	completedARPResolution:count 	2789
attr title  "ARP completed resolutions, count"
scalar scenarioPRJP1.node[22].networkLayer.arp 	initiatedARPResolution:count 	149
attr title  "ARP initiated resolutions, count"
scalar scenarioPRJP1.node[22].networkLayer.arp 	sentReply:count 	157
attr title  "ARP replies sent, count"
scalar scenarioPRJP1.node[22].networkLayer.arp 	sentReq:count 	369
attr title  "ARP request sent, count"
scalar scenarioPRJP1.node[22].mobility 	startTime 	2.5
scalar scenarioPRJP1.node[22].mobility 	totalTime 	1897.5
scalar scenarioPRJP1.node[22].mobility 	stopTime 	1900
scalar scenarioPRJP1.node[22].mobility 	minSpeed 	2.4754996139414e-13
scalar scenarioPRJP1.node[22].mobility 	maxSpeed 	17.118701478707
scalar scenarioPRJP1.node[22].mobility 	totalDistance 	20330.047649783
scalar scenarioPRJP1.node[22].mobility 	totalCO2Emission 	5104.8319662538
scalar scenarioPRJP1.node[22].wlan.mgmt 	dataQueueLen:max 	100
attr interpolationmode  sample-hold
attr title  "data queue length, max"
scalar scenarioPRJP1.node[22].wlan.mgmt 	dataQueueLen:timeavg 	21.095054875525
attr interpolationmode  sample-hold
attr title  "data queue length, timeavg"
scalar scenarioPRJP1.node[22].wlan.mgmt 	dropPkByQueue:count 	1593
attr interpolationmode  none
attr source  dropPkByQueue
attr title  "packets dropped by queue, count"
scalar scenarioPRJP1.node[22].wlan.mgmt 	dropPkByQueue:sum(packetBytes) 	482284
attr interpolationmode  none
attr source  dropPkByQueue
attr title  "packets dropped by queue, sum(packetBytes)"
scalar scenarioPRJP1.node[22].wlan.mac 	"number of received packets" 	55663
scalar scenarioPRJP1.node[22].wlan.mac 	"number of collisions" 	951039
scalar scenarioPRJP1.node[22].wlan.mac 	"number of internal collisions" 	39
scalar scenarioPRJP1.node[22].wlan.mac 	"number of retry for AC 0" 	95428
scalar scenarioPRJP1.node[22].wlan.mac 	"number of retry for AC 1" 	110
scalar scenarioPRJP1.node[22].wlan.mac 	"number of retry for AC 2" 	0
scalar scenarioPRJP1.node[22].wlan.mac 	"number of retry for AC 3" 	0
scalar scenarioPRJP1.node[22].wlan.mac 	"sent and received bits" 	95517824
scalar scenarioPRJP1.node[22].wlan.mac 	"sent packet within AC 0" 	46871
scalar scenarioPRJP1.node[22].wlan.mac 	"sent packet within AC 1" 	364
scalar scenarioPRJP1.node[22].wlan.mac 	"sent packet within AC 2" 	0
scalar scenarioPRJP1.node[22].wlan.mac 	"sent packet within AC 3" 	0
scalar scenarioPRJP1.node[22].wlan.mac 	"sent in TXOP " 	0
scalar scenarioPRJP1.node[22].wlan.mac 	"sentWithoutRetry AC 0" 	24270
scalar scenarioPRJP1.node[22].wlan.mac 	"sentWithoutRetry AC 1" 	284
scalar scenarioPRJP1.node[22].wlan.mac 	"sentWithoutRetry AC 2" 	0
scalar scenarioPRJP1.node[22].wlan.mac 	"sentWithoutRetry AC 3" 	0
scalar scenarioPRJP1.node[22].wlan.mac 	"numGivenUp AC 0" 	7283
scalar scenarioPRJP1.node[22].wlan.mac 	"numGivenUp AC 1" 	0
scalar scenarioPRJP1.node[22].wlan.mac 	"numGivenUp AC 2" 	0
scalar scenarioPRJP1.node[22].wlan.mac 	"numGivenUp AC 3" 	0
scalar scenarioPRJP1.node[22].wlan.mac 	"numDropped AC 0" 	32262
scalar scenarioPRJP1.node[22].wlan.mac 	"numDropped AC 1" 	4
scalar scenarioPRJP1.node[22].wlan.mac 	"numDropped AC 2" 	0
scalar scenarioPRJP1.node[22].wlan.mac 	"numDropped AC 3" 	0
scalar scenarioPRJP1.node[22].wlan.mac 	rcvdPkFromLL:count 	3525671
attr interpolationmode  none
attr source  packetReceivedFromLower
attr title  "packets received from lower layer, count"
scalar scenarioPRJP1.node[22].wlan.mac 	rcvdPkFromLL:sum(packetBytes) 	709172370
attr interpolationmode  none
attr source  packetReceivedFromLower
attr title  "packets received from lower layer, sum(packetBytes)"
scalar scenarioPRJP1.node[22].wlan.mac 	sentDownPk:count 	208779
attr interpolationmode  none
attr source  packetSentToLower
attr title  "packets sent to lower layer, count"
scalar scenarioPRJP1.node[22].wlan.mac 	sentDownPk:sum(packetBytes) 	45482434
attr interpolationmode  none
attr source  packetSentToLower
attr title  "packets sent to lower layer, sum(packetBytes)"
scalar scenarioPRJP1.node[22].wlan.mac 	rcvdPkFromHL:count 	89883
attr interpolationmode  none
attr source  packetReceivedFromUpper
attr title  "packets received from higher layer, count"
scalar scenarioPRJP1.node[22].wlan.mac 	rcvdPkFromHL:sum(packetBytes) 	23112368
attr interpolationmode  none
attr source  packetReceivedFromUpper
attr title  "packets received from higher layer, sum(packetBytes)"
scalar scenarioPRJP1.node[22].wlan.mac 	passedUpPk:count 	76634
attr interpolationmode  none
attr source  packetSentToUpper
attr title  "packets passed to higher layer, count"
scalar scenarioPRJP1.node[22].wlan.mac 	passedUpPk:sum(packetBytes) 	14844720
attr interpolationmode  none
attr source  packetSentToUpper
attr title  "packets passed to higher layer, sum(packetBytes)"
statistic scenarioPRJP1.node[22].wlan.radio 	radioChannel:histogram
field count 1
field mean 3
field stddev -nan
field sum 3
field sqrsum 9
field min 3
field max 3
attr interpolationmode  sample-hold
attr source  radioChannelChanged
attr title  "Radio channel, histogram"
bin	-INF	0
bin	2	0
bin	3	1
bin	4	0
scalar scenarioPRJP1.node[22].wlan.radio 	transmissionState:count 	835116
attr interpolationmode  sample-hold
attr source  transmissionStateChanged
attr title  "Radio transmission state, count"
scalar scenarioPRJP1.node[22].wlan.radio 	receptionState:count 	8030882
attr interpolationmode  sample-hold
attr source  receptionStateChanged
attr title  "Radio reception state, count"
scalar scenarioPRJP1.node[22].wlan.radio 	radioMode:count 	417560
attr interpolationmode  sample-hold
attr source  radioModeChanged
attr title  "Radio mode, count"
statistic scenarioPRJP1.node[22].wlan.radio 	symbolErrorRate:histogram
field count 0
field mean -nan
field stddev -nan
field sum 0
field sqrsum 0
field min -nan
field max -nan
attr source  symbolErrorRate
attr title  "Symbol error rate, histogram"
bin	-INF	0
bin	-0.5	0
bin	-0.46666666666667	0
bin	-0.43333333333333	0
bin	-0.4	0
bin	-0.36666666666667	0
bin	-0.33333333333333	0
bin	-0.3	0
bin	-0.26666666666667	0
bin	-0.23333333333333	0
bin	-0.2	0
bin	-0.16666666666667	0
bin	-0.13333333333333	0
bin	-0.1	0
bin	-0.066666666666667	0
bin	-0.033333333333333	0
bin	0	0
bin	0.033333333333333	0
bin	0.066666666666667	0
bin	0.1	0
bin	0.13333333333333	0
bin	0.16666666666667	0
bin	0.2	0
bin	0.23333333333333	0
bin	0.26666666666667	0
bin	0.3	0
bin	0.33333333333333	0
bin	0.36666666666667	0
bin	0.4	0
bin	0.43333333333333	0
bin	0.46666666666667	0
bin	0.5	0
statistic scenarioPRJP1.node[22].wlan.radio 	bitErrorRate:histogram
field count 0
field mean -nan
field stddev -nan
field sum 0
field sqrsum 0
field min -nan
field max -nan
attr source  bitErrorRate
attr title  "Bit error rate, histogram"
bin	-INF	0
bin	-0.5	0
bin	-0.46666666666667	0
bin	-0.43333333333333	0
bin	-0.4	0
bin	-0.36666666666667	0
bin	-0.33333333333333	0
bin	-0.3	0
bin	-0.26666666666667	0
bin	-0.23333333333333	0
bin	-0.2	0
bin	-0.16666666666667	0
bin	-0.13333333333333	0
bin	-0.1	0
bin	-0.066666666666667	0
bin	-0.033333333333333	0
bin	0	0
bin	0.033333333333333	0
bin	0.066666666666667	0
bin	0.1	0
bin	0.13333333333333	0
bin	0.16666666666667	0
bin	0.2	0
bin	0.23333333333333	0
bin	0.26666666666667	0
bin	0.3	0
bin	0.33333333333333	0
bin	0.36666666666667	0
bin	0.4	0
bin	0.43333333333333	0
bin	0.46666666666667	0
bin	0.5	0
statistic scenarioPRJP1.node[22].wlan.radio 	packetErrorRate:histogram
field count 3525671
field mean 0.26510126249524
field stddev 0.43733892171287
field sum 934659.83324285
field sqrsum 922117.94643756
field min 0
field max 1
attr source  packetErrorRate
attr title  "Packet error rate, histogram"
bin	-INF	0
bin	-0.5	0
bin	-0.43333333333333	0
bin	-0.36666666666667	0
bin	-0.3	0
bin	-0.23333333333333	0
bin	-0.16666666666667	0
bin	-0.1	0
bin	-0.033333333333333	2540533
bin	0.033333333333333	20056
bin	0.1	9754
bin	0.16666666666667	6868
bin	0.23333333333333	5329
bin	0.3	4474
bin	0.36666666666667	4055
bin	0.43333333333333	3724
bin	0.5	3407
bin	0.56666666666667	3297
bin	0.63333333333333	3367
bin	0.7	3379
bin	0.76666666666667	3853
bin	0.83333333333333	4550
bin	0.9	7161
bin	0.96666666666667	901864
bin	1.0333333333333	0
bin	1.1	0
bin	1.1666666666667	0
bin	1.2333333333333	0
bin	1.3	0
bin	1.3666666666667	0
bin	1.4333333333333	0
bin	1.5	0
statistic scenarioPRJP1.node[22].wlan.radio 	minSNIR:histogram
field count 3525671
field mean 70666.259491008
field stddev 1068083.3780822
field sum 249145981765.92
field sqrsum 4.0396979634448e+18
field min 2.0553207605091e-06
field max 277830049.21696
attr source  minSNIR
attr title  "Min SNIR, histogram"
bin	-INF	0
bin	-4271738.812138	0
bin	-3702173.6371824	0
bin	-3132608.4622268	0
bin	-2563043.2872713	0
bin	-1993478.1123157	0
bin	-1423912.9373601	0
bin	-854347.76240453	0
bin	-284782.58744895	3465789
bin	284782.58750662	21925
bin	854347.7624622	8193
bin	1423912.9374178	4992
bin	1993478.1123734	3530
bin	2563043.2873289	2737
bin	3132608.4622845	2149
bin	3702173.6372401	1763
bin	4271738.8121957	1426
bin	4841303.9871512	1233
bin	5410869.1621068	1083
bin	5980434.3370624	928
bin	6549999.512018	800
bin	7119564.6869735	719
bin	7689129.8619291	666
bin	8258695.0368847	533
bin	8828260.2118403	519
bin	9397825.3867959	459
bin	9967390.5617514	429
bin	10536955.736707	396
bin	11106520.911663	403
bin	11676086.086618	318
bin	12245651.261574	314
bin	12815216.436529	4367
scalar scenarioPRJP1.node[22].lo0.lo 	droppedPkBitError:count 	0
attr interpolationmode  none
attr source  dropPkBitError
attr title  "packets dropped/bit error, count"
scalar scenarioPRJP1.node[22].lo0.lo 	droppedPkBitError:sum(packetBytes) 	0
attr interpolationmode  none
attr source  dropPkBitError
attr title  "packets dropped/bit error, sum(packetBytes)"
scalar scenarioPRJP1.node[22].lo0.lo 	rcvdPkFromHL:count 	7323
attr interpolationmode  none
attr source  packetReceivedFromUpper
attr title  "packets received from higher layer, count"
scalar scenarioPRJP1.node[22].lo0.lo 	rcvdPkFromHL:sum(packetBytes) 	3777776
attr interpolationmode  none
attr source  packetReceivedFromUpper
attr title  "packets received from higher layer, sum(packetBytes)"
scalar scenarioPRJP1.node[22].lo0.lo 	passedUpPk:count 	7323
attr interpolationmode  none
attr source  packetSentToUpper
attr title  "packets passed to higher layer, count"
scalar scenarioPRJP1.node[22].lo0.lo 	passedUpPk:sum(packetBytes) 	3777776
attr interpolationmode  none
attr source  packetSentToUpper
attr title  "packets passed to higher layer, sum(packetBytes)"
