version 2
run AODVRouting-FS-25n-0-20150714-04:18:20-8347
attr configname AODVRouting-FS-25n
attr datetime 20150714-04:18:20
attr experiment AODVRouting-FS-25n
attr inifile omnetpp.ini
attr iterationvars ""
attr iterationvars2 $repetition=0
attr measurement ""
attr network Prj_Part1_propag.scenarioPRJP1
attr processid 8347
attr repetition 0
attr replication #0
attr resultdir results
attr runnumber 0
attr seedset 0

scalar scenarioPRJP1.radioMedium.propagation 	"Arrival computation count" 	7031856
scalar scenarioPRJP1.radioMedium 	"transmission count" 	292994
scalar scenarioPRJP1.radioMedium 	"radio frame send count" 	7031856
scalar scenarioPRJP1.radioMedium 	"reception computation count" 	7012392
scalar scenarioPRJP1.radioMedium 	"interference computation count" 	20883909
scalar scenarioPRJP1.radioMedium 	"reception decision computation count" 	775430
scalar scenarioPRJP1.radioMedium 	"listening decision computation count" 	13141720
scalar scenarioPRJP1.radioMedium 	"reception cache hit" 	73.589531192176
attr unit  %
scalar scenarioPRJP1.radioMedium 	"interference cache hit" 	50
attr unit  %
scalar scenarioPRJP1.radioMedium 	"noise cache hit" 	0
attr unit  %
scalar scenarioPRJP1.radioMedium 	"snir cache hit" 	0
attr unit  %
scalar scenarioPRJP1.radioMedium 	"reception decision cache hit" 	0
attr unit  %
scalar scenarioPRJP1.node[0].app 	"Total sent" 	2611
scalar scenarioPRJP1.node[0].app 	"Total received" 	169
scalar scenarioPRJP1.node[0].app 	"Total deleted" 	196
scalar scenarioPRJP1.node[0].app 	dropPk:count 	196
attr interpolationmode  none
attr source  dropPk
attr title  "packets dropped, count"
scalar scenarioPRJP1.node[0].app 	dropPk:sum(packetBytes) 	100352
attr interpolationmode  none
attr source  dropPk
attr title  "packets dropped, sum(packetBytes)"
scalar scenarioPRJP1.node[0].app 	outOfOrderPk:count 	82
attr interpolationmode  none
attr source  outOfOrderPk
attr title  "packets received out of order, count"
scalar scenarioPRJP1.node[0].app 	outOfOrderPk:sum(packetBytes) 	41984
attr interpolationmode  none
attr source  outOfOrderPk
attr title  "packets received out of order, sum(packetBytes)"
scalar scenarioPRJP1.node[0].app 	rcvdPk:count 	169
attr interpolationmode  none
attr source  rcvdPk
attr title  "packets received, count"
scalar scenarioPRJP1.node[0].app 	rcvdPk:sum(packetBytes) 	86528
attr interpolationmode  none
attr source  rcvdPk
attr title  "packets received, sum(packetBytes)"
statistic scenarioPRJP1.node[0].app 	endToEndDelay:histogram
field count 169
field mean 2.8552279130225
field stddev 5.192243785507
field sum 482.5335173008
field sqrsum 5906.921616293
field min 0.000945039142
field max 19.784223904451
attr interpolationmode  none
attr source  messageAge(rcvdPk)
attr title  "delay, histogram"
attr unit  s
bin	-INF	0
bin	-9.1363642705505	0
bin	-7.9180563625915	0
bin	-6.6997484546325	0
bin	-5.4814405466735	0
bin	-4.2631326387145	0
bin	-3.0448247307555	0
bin	-1.8265168227965	0
bin	-0.6082089148375	114
bin	0.6100989931215	5
bin	1.8284069010805	7
bin	3.0467148090395	3
bin	4.2650227169985	5
bin	5.4833306249575	4
bin	6.7016385329165	3
bin	7.9199464408755	3
bin	9.1382543488345	3
bin	10.356562256794	3
bin	11.574870164753	4
bin	12.793178072712	4
bin	14.011485980671	3
bin	15.229793888629	1
bin	16.448101796589	1
bin	17.666409704547	5
bin	18.884717612506	1
bin	20.103025520466	0
bin	21.321333428425	0
bin	22.539641336384	0
bin	23.757949244342	0
bin	24.976257152301	0
bin	26.194565060261	0
bin	27.412872968219	0
scalar scenarioPRJP1.node[0].app 	sentPk:count 	2611
attr interpolationmode  none
attr source  sentPk
attr title  "packets sent, count"
scalar scenarioPRJP1.node[0].app 	sentPk:sum(packetBytes) 	1336832
attr interpolationmode  none
attr source  sentPk
attr title  "packets sent, sum(packetBytes)"
scalar scenarioPRJP1.node[0].udp 	droppedPkBadChecksum:count 	0
attr interpolationmode  none
attr title  "packets dropped (checksum error), count"
scalar scenarioPRJP1.node[0].udp 	droppedPkWrongPort:count 	0
attr interpolationmode  none
attr title  "packets dropped (wrong port), count"
scalar scenarioPRJP1.node[0].udp 	passedUpPk:count 	447
attr interpolationmode  none
attr title  "packets passed up, count"
scalar scenarioPRJP1.node[0].udp 	rcvdPk:count 	447
attr interpolationmode  none
attr source  rcvdPk
attr title  "packets received, count"
scalar scenarioPRJP1.node[0].udp 	rcvdPk:sum(packetBytes) 	232440
attr interpolationmode  none
attr source  rcvdPk
attr title  "packets received, sum(packetBytes)"
scalar scenarioPRJP1.node[0].udp 	sentPk:count 	2611
attr interpolationmode  none
attr source  sentPk
attr title  "packets sent, count"
scalar scenarioPRJP1.node[0].udp 	sentPk:sum(packetBytes) 	1357720
attr interpolationmode  none
attr source  sentPk
attr title  "packets sent, sum(packetBytes)"
scalar scenarioPRJP1.node[0].networkLayer.arp 	failedARPResolution:count 	1
attr title  "ARP failed resolutions, count"
scalar scenarioPRJP1.node[0].networkLayer.arp 	completedARPResolution:count 	64
attr title  "ARP completed resolutions, count"
scalar scenarioPRJP1.node[0].networkLayer.arp 	initiatedARPResolution:count 	16
attr title  "ARP initiated resolutions, count"
scalar scenarioPRJP1.node[0].networkLayer.arp 	sentReply:count 	20
attr title  "ARP replies sent, count"
scalar scenarioPRJP1.node[0].networkLayer.arp 	sentReq:count 	19
attr title  "ARP request sent, count"
scalar scenarioPRJP1.node[0].mobility 	startTime 	0.1
scalar scenarioPRJP1.node[0].mobility 	totalTime 	949.9
scalar scenarioPRJP1.node[0].mobility 	stopTime 	950
scalar scenarioPRJP1.node[0].mobility 	minSpeed 	2.4754652356416e-13
scalar scenarioPRJP1.node[0].mobility 	maxSpeed 	16.158291518331
scalar scenarioPRJP1.node[0].mobility 	totalDistance 	9331.4752794378
scalar scenarioPRJP1.node[0].mobility 	totalCO2Emission 	2343.9585129968
scalar scenarioPRJP1.node[0].wlan[0].mgmt 	dataQueueLen:max 	43
attr interpolationmode  sample-hold
attr title  "data queue length, max"
scalar scenarioPRJP1.node[0].wlan[0].mgmt 	dataQueueLen:timeavg 	0
attr interpolationmode  sample-hold
attr title  "data queue length, timeavg"
scalar scenarioPRJP1.node[0].wlan[0].mgmt 	dropPkByQueue:count 	0
attr interpolationmode  none
attr source  dropPkByQueue
attr title  "packets dropped by queue, count"
scalar scenarioPRJP1.node[0].wlan[0].mgmt 	dropPkByQueue:sum(packetBytes) 	0
attr interpolationmode  none
attr source  dropPkByQueue
attr title  "packets dropped by queue, sum(packetBytes)"
scalar scenarioPRJP1.node[0].wlan[0].mac 	"number of received packets" 	3203
scalar scenarioPRJP1.node[0].wlan[0].mac 	"number of collisions" 	1102
scalar scenarioPRJP1.node[0].wlan[0].mac 	"number of internal collisions" 	0
scalar scenarioPRJP1.node[0].wlan[0].mac 	"number of retry for AC 0" 	2971
scalar scenarioPRJP1.node[0].wlan[0].mac 	"number of retry for AC 1" 	0
scalar scenarioPRJP1.node[0].wlan[0].mac 	"number of retry for AC 2" 	0
scalar scenarioPRJP1.node[0].wlan[0].mac 	"number of retry for AC 3" 	0
scalar scenarioPRJP1.node[0].wlan[0].mac 	"sent and received bits" 	4095680
scalar scenarioPRJP1.node[0].wlan[0].mac 	"sent packet within AC 0" 	414
scalar scenarioPRJP1.node[0].wlan[0].mac 	"sent packet within AC 1" 	0
scalar scenarioPRJP1.node[0].wlan[0].mac 	"sent packet within AC 2" 	0
scalar scenarioPRJP1.node[0].wlan[0].mac 	"sent packet within AC 3" 	0
scalar scenarioPRJP1.node[0].wlan[0].mac 	"sent in TXOP " 	0
scalar scenarioPRJP1.node[0].wlan[0].mac 	"sentWithoutRetry AC 0" 	394
scalar scenarioPRJP1.node[0].wlan[0].mac 	"sentWithoutRetry AC 1" 	0
scalar scenarioPRJP1.node[0].wlan[0].mac 	"sentWithoutRetry AC 2" 	0
scalar scenarioPRJP1.node[0].wlan[0].mac 	"sentWithoutRetry AC 3" 	0
scalar scenarioPRJP1.node[0].wlan[0].mac 	"numGivenUp AC 0" 	490
scalar scenarioPRJP1.node[0].wlan[0].mac 	"numGivenUp AC 1" 	0
scalar scenarioPRJP1.node[0].wlan[0].mac 	"numGivenUp AC 2" 	0
scalar scenarioPRJP1.node[0].wlan[0].mac 	"numGivenUp AC 3" 	0
scalar scenarioPRJP1.node[0].wlan[0].mac 	"numDropped AC 0" 	9
scalar scenarioPRJP1.node[0].wlan[0].mac 	"numDropped AC 1" 	0
scalar scenarioPRJP1.node[0].wlan[0].mac 	"numDropped AC 2" 	0
scalar scenarioPRJP1.node[0].wlan[0].mac 	"numDropped AC 3" 	0
scalar scenarioPRJP1.node[0].wlan[0].mac 	rcvdPkFromLL:count 	27917
attr interpolationmode  none
attr source  packetReceivedFromLower
attr title  "packets received from lower layer, count"
scalar scenarioPRJP1.node[0].wlan[0].mac 	rcvdPkFromLL:sum(packetBytes) 	7104466
attr interpolationmode  none
attr source  packetReceivedFromLower
attr title  "packets received from lower layer, sum(packetBytes)"
scalar scenarioPRJP1.node[0].wlan[0].mac 	sentDownPk:count 	10428
attr interpolationmode  none
attr source  packetSentToLower
attr title  "packets sent to lower layer, count"
scalar scenarioPRJP1.node[0].wlan[0].mac 	sentDownPk:sum(packetBytes) 	2342022
attr interpolationmode  none
attr source  packetSentToLower
attr title  "packets sent to lower layer, sum(packetBytes)"
scalar scenarioPRJP1.node[0].wlan[0].mac 	rcvdPkFromHL:count 	4263
attr interpolationmode  none
attr source  packetReceivedFromUpper
attr title  "packets received from higher layer, count"
scalar scenarioPRJP1.node[0].wlan[0].mac 	rcvdPkFromHL:sum(packetBytes) 	767012
attr interpolationmode  none
attr source  packetReceivedFromUpper
attr title  "packets received from higher layer, sum(packetBytes)"
scalar scenarioPRJP1.node[0].wlan[0].mac 	passedUpPk:count 	7403
attr interpolationmode  none
attr source  packetSentToUpper
attr title  "packets passed to higher layer, count"
scalar scenarioPRJP1.node[0].wlan[0].mac 	passedUpPk:sum(packetBytes) 	1036224
attr interpolationmode  none
attr source  packetSentToUpper
attr title  "packets passed to higher layer, sum(packetBytes)"
statistic scenarioPRJP1.node[0].wlan[0].radio 	radioChannel:histogram
field count 1
field mean 3
field stddev -nan
field sum 3
field sqrsum 9
field min 3
field max 3
attr interpolationmode  sample-hold
attr source  radioChannelChanged
attr title  "Radio channel, histogram"
bin	-INF	0
bin	2	0
bin	3	1
bin	4	0
scalar scenarioPRJP1.node[0].wlan[0].radio 	transmissionState:count 	41712
attr interpolationmode  sample-hold
attr source  transmissionStateChanged
attr title  "Radio transmission state, count"
scalar scenarioPRJP1.node[0].wlan[0].radio 	receptionState:count 	76873
attr interpolationmode  sample-hold
attr source  receptionStateChanged
attr title  "Radio reception state, count"
scalar scenarioPRJP1.node[0].wlan[0].radio 	radioMode:count 	20858
attr interpolationmode  sample-hold
attr source  radioModeChanged
attr title  "Radio mode, count"
statistic scenarioPRJP1.node[0].wlan[0].radio 	symbolErrorRate:histogram
field count 0
field mean -nan
field stddev -nan
field sum 0
field sqrsum 0
field min -nan
field max -nan
attr source  symbolErrorRate
attr title  "Symbol error rate, histogram"
bin	-INF	0
bin	-0.5	0
bin	-0.46666666666667	0
bin	-0.43333333333333	0
bin	-0.4	0
bin	-0.36666666666667	0
bin	-0.33333333333333	0
bin	-0.3	0
bin	-0.26666666666667	0
bin	-0.23333333333333	0
bin	-0.2	0
bin	-0.16666666666667	0
bin	-0.13333333333333	0
bin	-0.1	0
bin	-0.066666666666667	0
bin	-0.033333333333333	0
bin	0	0
bin	0.033333333333333	0
bin	0.066666666666667	0
bin	0.1	0
bin	0.13333333333333	0
bin	0.16666666666667	0
bin	0.2	0
bin	0.23333333333333	0
bin	0.26666666666667	0
bin	0.3	0
bin	0.33333333333333	0
bin	0.36666666666667	0
bin	0.4	0
bin	0.43333333333333	0
bin	0.46666666666667	0
bin	0.5	0
statistic scenarioPRJP1.node[0].wlan[0].radio 	bitErrorRate:histogram
field count 0
field mean -nan
field stddev -nan
field sum 0
field sqrsum 0
field min -nan
field max -nan
attr source  bitErrorRate
attr title  "Bit error rate, histogram"
bin	-INF	0
bin	-0.5	0
bin	-0.46666666666667	0
bin	-0.43333333333333	0
bin	-0.4	0
bin	-0.36666666666667	0
bin	-0.33333333333333	0
bin	-0.3	0
bin	-0.26666666666667	0
bin	-0.23333333333333	0
bin	-0.2	0
bin	-0.16666666666667	0
bin	-0.13333333333333	0
bin	-0.1	0
bin	-0.066666666666667	0
bin	-0.033333333333333	0
bin	0	0
bin	0.033333333333333	0
bin	0.066666666666667	0
bin	0.1	0
bin	0.13333333333333	0
bin	0.16666666666667	0
bin	0.2	0
bin	0.23333333333333	0
bin	0.26666666666667	0
bin	0.3	0
bin	0.33333333333333	0
bin	0.36666666666667	0
bin	0.4	0
bin	0.43333333333333	0
bin	0.46666666666667	0
bin	0.5	0
statistic scenarioPRJP1.node[0].wlan[0].radio 	packetErrorRate:histogram
field count 27917
field mean 0.036979909294731
field stddev 0.18380530169615
field sum 1032.368127781
field sqrsum 981.30188113906
field min 0
field max 1
attr source  packetErrorRate
attr title  "Packet error rate, histogram"
bin	-INF	0
bin	-5.3516535869325e-05	0
bin	-4.6380997753415e-05	0
bin	-3.9245459637505e-05	0
bin	-3.2109921521595e-05	0
bin	-2.4974383405685e-05	0
bin	-1.7838845289775e-05	0
bin	-1.0703307173865e-05	0
bin	-3.567769057955e-06	25829
bin	3.567769057955e-06	108
bin	1.0703307173865e-05	55
bin	1.7838845289775e-05	18
bin	2.4974383405685e-05	20
bin	3.2109921521595e-05	13
bin	3.9245459637505e-05	13
bin	4.6380997753415e-05	7
bin	5.3516535869325e-05	13
bin	6.0652073985235e-05	9
bin	6.7787612101144e-05	10
bin	7.4923150217054e-05	7
bin	8.2058688332964e-05	3
bin	8.9194226448874e-05	5
bin	9.6329764564784e-05	4
bin	0.00010346530268069	6
bin	0.0001106008407966	7
bin	0.00011773637891251	8
bin	0.00012487191702842	2
bin	0.00013200745514433	6
bin	0.00013914299326024	5
bin	0.00014627853137615	3
bin	0.00015341406949206	8
bin	0.00016054960760797	1758
statistic scenarioPRJP1.node[0].wlan[0].radio 	minSNIR:histogram
field count 27917
field mean 15104.917848669
field stddev 70113.736914162
field sum 421683991.58128
field sqrsum 1.4360277433211e+14
field min 0.0010582400912141
field max 769838.45482071
attr source  minSNIR
attr title  "Min SNIR, histogram"
bin	-INF	0
bin	-513.37337094768	0
bin	-444.50058534917	0
bin	-375.62779975066	0
bin	-306.75501415215	0
bin	-237.88222855363	0
bin	-169.00944295512	0
bin	-100.13665735661	0
bin	-31.263871758103	6198
bin	37.608913840407	616
bin	106.48169943892	4987
bin	175.35448503743	3769
bin	244.22727063594	2175
bin	313.10005623445	861
bin	381.97284183296	914
bin	450.84562743147	360
bin	519.71841302998	294
bin	588.59119862849	499
bin	657.463984227	308
bin	726.33676982551	237
bin	795.20955542402	271
bin	864.08234102253	185
bin	932.95512662104	146
bin	1001.8279122196	140
bin	1070.7006978181	79
bin	1139.5734834166	62
bin	1208.4462690151	59
bin	1277.3190546136	93
bin	1346.1918402121	39
bin	1415.0646258106	87
bin	1483.9374114091	50
bin	1552.8101970076	5488
scalar scenarioPRJP1.node[0].lo0.lo 	droppedPkBitError:count 	0
attr interpolationmode  none
attr source  dropPkBitError
attr title  "packets dropped/bit error, count"
scalar scenarioPRJP1.node[0].lo0.lo 	droppedPkBitError:sum(packetBytes) 	0
attr interpolationmode  none
attr source  dropPkBitError
attr title  "packets dropped/bit error, sum(packetBytes)"
scalar scenarioPRJP1.node[0].lo0.lo 	rcvdPkFromHL:count 	0
attr interpolationmode  none
attr source  packetReceivedFromUpper
attr title  "packets received from higher layer, count"
scalar scenarioPRJP1.node[0].lo0.lo 	rcvdPkFromHL:sum(packetBytes) 	0
attr interpolationmode  none
attr source  packetReceivedFromUpper
attr title  "packets received from higher layer, sum(packetBytes)"
scalar scenarioPRJP1.node[0].lo0.lo 	passedUpPk:count 	0
attr interpolationmode  none
attr source  packetSentToUpper
attr title  "packets passed to higher layer, count"
scalar scenarioPRJP1.node[0].lo0.lo 	passedUpPk:sum(packetBytes) 	0
attr interpolationmode  none
attr source  packetSentToUpper
attr title  "packets passed to higher layer, sum(packetBytes)"
scalar scenarioPRJP1.node[14].app 	"Total sent" 	2615
scalar scenarioPRJP1.node[14].app 	"Total received" 	145
scalar scenarioPRJP1.node[14].app 	"Total deleted" 	195
scalar scenarioPRJP1.node[14].app 	dropPk:count 	195
attr interpolationmode  none
attr source  dropPk
attr title  "packets dropped, count"
scalar scenarioPRJP1.node[14].app 	dropPk:sum(packetBytes) 	99840
attr interpolationmode  none
attr source  dropPk
attr title  "packets dropped, sum(packetBytes)"
scalar scenarioPRJP1.node[14].app 	outOfOrderPk:count 	111
attr interpolationmode  none
attr source  outOfOrderPk
attr title  "packets received out of order, count"
scalar scenarioPRJP1.node[14].app 	outOfOrderPk:sum(packetBytes) 	56832
attr interpolationmode  none
attr source  outOfOrderPk
attr title  "packets received out of order, sum(packetBytes)"
scalar scenarioPRJP1.node[14].app 	rcvdPk:count 	145
attr interpolationmode  none
attr source  rcvdPk
attr title  "packets received, count"
scalar scenarioPRJP1.node[14].app 	rcvdPk:sum(packetBytes) 	74240
attr interpolationmode  none
attr source  rcvdPk
attr title  "packets received, sum(packetBytes)"
statistic scenarioPRJP1.node[14].app 	endToEndDelay:histogram
field count 145
field mean 2.745464522299
field stddev 5.1088343158056
field sum 398.09235573336
field sqrsum 4851.3755208192
field min 0.00094522655
field max 19.748691444731
attr interpolationmode  none
attr source  messageAge(rcvdPk)
attr title  "delay, histogram"
attr unit  s
bin	-INF	0
bin	-9.8729278825405	0
bin	-8.5564114679951	0
bin	-7.2398950534497	0
bin	-5.9233786389043	0
bin	-4.6068622243589	0
bin	-3.2903458098135	0
bin	-1.9738293952681	0
bin	-0.6573129807227	102
bin	0.6592034338227	4
bin	1.9757198483681	2
bin	3.2922362629135	6
bin	4.6087526774589	3
bin	5.9252690920043	2
bin	7.2417855065497	2
bin	8.5583019210951	5
bin	9.8748183356405	4
bin	11.191334750186	2
bin	12.507851164731	3
bin	13.824367579277	2
bin	15.140883993822	3
bin	16.457400408368	3
bin	17.773916822913	0
bin	19.090433237458	2
bin	20.406949652004	0
bin	21.723466066549	0
bin	23.039982481095	0
bin	24.35649889564	0
bin	25.673015310185	0
bin	26.989531724731	0
bin	28.306048139276	0
bin	29.622564553822	0
scalar scenarioPRJP1.node[14].app 	sentPk:count 	2615
attr interpolationmode  none
attr source  sentPk
attr title  "packets sent, count"
scalar scenarioPRJP1.node[14].app 	sentPk:sum(packetBytes) 	1338880
attr interpolationmode  none
attr source  sentPk
attr title  "packets sent, sum(packetBytes)"
scalar scenarioPRJP1.node[14].udp 	droppedPkBadChecksum:count 	0
attr interpolationmode  none
attr title  "packets dropped (checksum error), count"
scalar scenarioPRJP1.node[14].udp 	droppedPkWrongPort:count 	0
attr interpolationmode  none
attr title  "packets dropped (wrong port), count"
scalar scenarioPRJP1.node[14].udp 	passedUpPk:count 	451
attr interpolationmode  none
attr title  "packets passed up, count"
scalar scenarioPRJP1.node[14].udp 	rcvdPk:count 	451
attr interpolationmode  none
attr source  rcvdPk
attr title  "packets received, count"
scalar scenarioPRJP1.node[14].udp 	rcvdPk:sum(packetBytes) 	234520
attr interpolationmode  none
attr source  rcvdPk
attr title  "packets received, sum(packetBytes)"
scalar scenarioPRJP1.node[14].udp 	sentPk:count 	2615
attr interpolationmode  none
attr source  sentPk
attr title  "packets sent, count"
scalar scenarioPRJP1.node[14].udp 	sentPk:sum(packetBytes) 	1359800
attr interpolationmode  none
attr source  sentPk
attr title  "packets sent, sum(packetBytes)"
scalar scenarioPRJP1.node[14].networkLayer.arp 	failedARPResolution:count 	1
attr title  "ARP failed resolutions, count"
scalar scenarioPRJP1.node[14].networkLayer.arp 	completedARPResolution:count 	55
attr title  "ARP completed resolutions, count"
scalar scenarioPRJP1.node[14].networkLayer.arp 	initiatedARPResolution:count 	20
attr title  "ARP initiated resolutions, count"
scalar scenarioPRJP1.node[14].networkLayer.arp 	sentReply:count 	20
attr title  "ARP replies sent, count"
scalar scenarioPRJP1.node[14].networkLayer.arp 	sentReq:count 	22
attr title  "ARP request sent, count"
scalar scenarioPRJP1.node[14].mobility 	startTime 	2.5
scalar scenarioPRJP1.node[14].mobility 	totalTime 	947.5
scalar scenarioPRJP1.node[14].mobility 	stopTime 	950
scalar scenarioPRJP1.node[14].mobility 	minSpeed 	2.4754419441578e-13
scalar scenarioPRJP1.node[14].mobility 	maxSpeed 	20.179638161707
scalar scenarioPRJP1.node[14].mobility 	totalDistance 	10323.031827609
scalar scenarioPRJP1.node[14].mobility 	totalCO2Emission 	2912.6977220394
scalar scenarioPRJP1.node[14].wlan[0].mgmt 	dataQueueLen:max 	43
attr interpolationmode  sample-hold
attr title  "data queue length, max"
scalar scenarioPRJP1.node[14].wlan[0].mgmt 	dataQueueLen:timeavg 	0.0023925052682354
attr interpolationmode  sample-hold
attr title  "data queue length, timeavg"
scalar scenarioPRJP1.node[14].wlan[0].mgmt 	dropPkByQueue:count 	0
attr interpolationmode  none
attr source  dropPkByQueue
attr title  "packets dropped by queue, count"
scalar scenarioPRJP1.node[14].wlan[0].mgmt 	dropPkByQueue:sum(packetBytes) 	0
attr interpolationmode  none
attr source  dropPkByQueue
attr title  "packets dropped by queue, sum(packetBytes)"
scalar scenarioPRJP1.node[14].wlan[0].mac 	"number of received packets" 	3036
scalar scenarioPRJP1.node[14].wlan[0].mac 	"number of collisions" 	780
scalar scenarioPRJP1.node[14].wlan[0].mac 	"number of internal collisions" 	0
scalar scenarioPRJP1.node[14].wlan[0].mac 	"number of retry for AC 0" 	3613
scalar scenarioPRJP1.node[14].wlan[0].mac 	"number of retry for AC 1" 	0
scalar scenarioPRJP1.node[14].wlan[0].mac 	"number of retry for AC 2" 	0
scalar scenarioPRJP1.node[14].wlan[0].mac 	"number of retry for AC 3" 	0
scalar scenarioPRJP1.node[14].wlan[0].mac 	"sent and received bits" 	4027712
scalar scenarioPRJP1.node[14].wlan[0].mac 	"sent packet within AC 0" 	328
scalar scenarioPRJP1.node[14].wlan[0].mac 	"sent packet within AC 1" 	0
scalar scenarioPRJP1.node[14].wlan[0].mac 	"sent packet within AC 2" 	0
scalar scenarioPRJP1.node[14].wlan[0].mac 	"sent packet within AC 3" 	0
scalar scenarioPRJP1.node[14].wlan[0].mac 	"sent in TXOP " 	0
scalar scenarioPRJP1.node[14].wlan[0].mac 	"sentWithoutRetry AC 0" 	310
scalar scenarioPRJP1.node[14].wlan[0].mac 	"sentWithoutRetry AC 1" 	0
scalar scenarioPRJP1.node[14].wlan[0].mac 	"sentWithoutRetry AC 2" 	0
scalar scenarioPRJP1.node[14].wlan[0].mac 	"sentWithoutRetry AC 3" 	0
scalar scenarioPRJP1.node[14].wlan[0].mac 	"numGivenUp AC 0" 	597
scalar scenarioPRJP1.node[14].wlan[0].mac 	"numGivenUp AC 1" 	0
scalar scenarioPRJP1.node[14].wlan[0].mac 	"numGivenUp AC 2" 	0
scalar scenarioPRJP1.node[14].wlan[0].mac 	"numGivenUp AC 3" 	0
scalar scenarioPRJP1.node[14].wlan[0].mac 	"numDropped AC 0" 	19
scalar scenarioPRJP1.node[14].wlan[0].mac 	"numDropped AC 1" 	0
scalar scenarioPRJP1.node[14].wlan[0].mac 	"numDropped AC 2" 	0
scalar scenarioPRJP1.node[14].wlan[0].mac 	"numDropped AC 3" 	0
scalar scenarioPRJP1.node[14].wlan[0].mac 	rcvdPkFromLL:count 	19639
attr interpolationmode  none
attr source  packetReceivedFromLower
attr title  "packets received from lower layer, count"
scalar scenarioPRJP1.node[14].wlan[0].mac 	rcvdPkFromLL:sum(packetBytes) 	4402048
attr interpolationmode  none
attr source  packetReceivedFromLower
attr title  "packets received from lower layer, sum(packetBytes)"
scalar scenarioPRJP1.node[14].wlan[0].mac 	sentDownPk:count 	11274
attr interpolationmode  none
attr source  packetSentToLower
attr title  "packets sent to lower layer, count"
scalar scenarioPRJP1.node[14].wlan[0].mac 	sentDownPk:sum(packetBytes) 	2713692
attr interpolationmode  none
attr source  packetSentToLower
attr title  "packets sent to lower layer, sum(packetBytes)"
scalar scenarioPRJP1.node[14].wlan[0].mac 	rcvdPkFromHL:count 	4644
attr interpolationmode  none
attr source  packetReceivedFromUpper
attr title  "packets received from higher layer, count"
scalar scenarioPRJP1.node[14].wlan[0].mac 	rcvdPkFromHL:sum(packetBytes) 	818576
attr interpolationmode  none
attr source  packetReceivedFromUpper
attr title  "packets received from higher layer, sum(packetBytes)"
scalar scenarioPRJP1.node[14].wlan[0].mac 	passedUpPk:count 	5974
attr interpolationmode  none
attr source  packetSentToUpper
attr title  "packets passed to higher layer, count"
scalar scenarioPRJP1.node[14].wlan[0].mac 	passedUpPk:sum(packetBytes) 	859556
attr interpolationmode  none
attr source  packetSentToUpper
attr title  "packets passed to higher layer, sum(packetBytes)"
statistic scenarioPRJP1.node[14].wlan[0].radio 	radioChannel:histogram
field count 1
field mean 3
field stddev -nan
field sum 3
field sqrsum 9
field min 3
field max 3
attr interpolationmode  sample-hold
attr source  radioChannelChanged
attr title  "Radio channel, histogram"
bin	-INF	0
bin	2	0
bin	3	1
bin	4	0
scalar scenarioPRJP1.node[14].wlan[0].radio 	transmissionState:count 	45096
attr interpolationmode  sample-hold
attr source  transmissionStateChanged
attr title  "Radio transmission state, count"
scalar scenarioPRJP1.node[14].wlan[0].radio 	receptionState:count 	61924
attr interpolationmode  sample-hold
attr source  receptionStateChanged
attr title  "Radio reception state, count"
scalar scenarioPRJP1.node[14].wlan[0].radio 	radioMode:count 	22550
attr interpolationmode  sample-hold
attr source  radioModeChanged
attr title  "Radio mode, count"
statistic scenarioPRJP1.node[14].wlan[0].radio 	symbolErrorRate:histogram
field count 0
field mean -nan
field stddev -nan
field sum 0
field sqrsum 0
field min -nan
field max -nan
attr source  symbolErrorRate
attr title  "Symbol error rate, histogram"
bin	-INF	0
bin	-0.5	0
bin	-0.46666666666667	0
bin	-0.43333333333333	0
bin	-0.4	0
bin	-0.36666666666667	0
bin	-0.33333333333333	0
bin	-0.3	0
bin	-0.26666666666667	0
bin	-0.23333333333333	0
bin	-0.2	0
bin	-0.16666666666667	0
bin	-0.13333333333333	0
bin	-0.1	0
bin	-0.066666666666667	0
bin	-0.033333333333333	0
bin	0	0
bin	0.033333333333333	0
bin	0.066666666666667	0
bin	0.1	0
bin	0.13333333333333	0
bin	0.16666666666667	0
bin	0.2	0
bin	0.23333333333333	0
bin	0.26666666666667	0
bin	0.3	0
bin	0.33333333333333	0
bin	0.36666666666667	0
bin	0.4	0
bin	0.43333333333333	0
bin	0.46666666666667	0
bin	0.5	0
statistic scenarioPRJP1.node[14].wlan[0].radio 	bitErrorRate:histogram
field count 0
field mean -nan
field stddev -nan
field sum 0
field sqrsum 0
field min -nan
field max -nan
attr source  bitErrorRate
attr title  "Bit error rate, histogram"
bin	-INF	0
bin	-0.5	0
bin	-0.46666666666667	0
bin	-0.43333333333333	0
bin	-0.4	0
bin	-0.36666666666667	0
bin	-0.33333333333333	0
bin	-0.3	0
bin	-0.26666666666667	0
bin	-0.23333333333333	0
bin	-0.2	0
bin	-0.16666666666667	0
bin	-0.13333333333333	0
bin	-0.1	0
bin	-0.066666666666667	0
bin	-0.033333333333333	0
bin	0	0
bin	0.033333333333333	0
bin	0.066666666666667	0
bin	0.1	0
bin	0.13333333333333	0
bin	0.16666666666667	0
bin	0.2	0
bin	0.23333333333333	0
bin	0.26666666666667	0
bin	0.3	0
bin	0.33333333333333	0
bin	0.36666666666667	0
bin	0.4	0
bin	0.43333333333333	0
bin	0.46666666666667	0
bin	0.5	0
statistic scenarioPRJP1.node[14].wlan[0].radio 	packetErrorRate:histogram
field count 19639
field mean 0.036503796047477
field stddev 0.17983002778748
field sum 716.89805057641
field sqrsum 661.23961842632
field min 0
field max 1
attr source  packetErrorRate
attr title  "Packet error rate, histogram"
bin	-INF	0
bin	-0.30639592522433	0
bin	-0.26554313519442	0
bin	-0.22469034516451	0
bin	-0.1838375551346	0
bin	-0.14298476510469	0
bin	-0.10213197507478	0
bin	-0.061279185044866	0
bin	-0.020426395014955	18632
bin	0.020426395014955	101
bin	0.061279185044866	58
bin	0.10213197507478	23
bin	0.14298476510469	22
bin	0.1838375551346	32
bin	0.22469034516451	7
bin	0.26554313519442	12
bin	0.30639592522433	15
bin	0.34724871525424	26
bin	0.38810150528415	6
bin	0.42895429531406	5
bin	0.46980708534397	5
bin	0.51065987537388	8
bin	0.5515126654038	5
bin	0.59236545543371	7
bin	0.63321824546362	9
bin	0.67407103549353	14
bin	0.71492382552344	13
bin	0.75577661555335	6
bin	0.79662940558326	16
bin	0.83748219561317	7
bin	0.87833498564308	12
bin	0.91918777567299	598
statistic scenarioPRJP1.node[14].wlan[0].radio 	minSNIR:histogram
field count 19639
field mean 2648.72684326
field stddev 16694.01106416
field sum 52018346.474783
field sqrsum 5610696716897.2
field min 0.019538328981213
field max 631189.36577238
attr source  minSNIR
attr title  "Min SNIR, histogram"
bin	-INF	0
bin	-310.61401185638	0
bin	-268.96066868567	0
bin	-227.30732551496	0
bin	-185.65398234426	0
bin	-144.00063917355	0
bin	-102.34729600284	0
bin	-60.693952832131	0
bin	-19.040609661423	3928
bin	22.612733509285	924
bin	64.266076679993	217
bin	105.9194198507	2371
bin	147.57276302141	2599
bin	189.22610619212	2003
bin	230.87944936282	1905
bin	272.53279253353	1005
bin	314.18613570424	503
bin	355.83947887495	350
bin	397.49282204566	239
bin	439.14616521637	190
bin	480.79950838707	176
bin	522.45285155778	132
bin	564.10619472849	195
bin	605.7595378992	69
bin	647.41288106991	130
bin	689.06622424061	154
bin	730.71956741132	99
bin	772.37291058203	91
bin	814.02625375274	66
bin	855.67959692345	103
bin	897.33294009415	42
bin	938.98628326486	2148
scalar scenarioPRJP1.node[14].lo0.lo 	droppedPkBitError:count 	0
attr interpolationmode  none
attr source  dropPkBitError
attr title  "packets dropped/bit error, count"
scalar scenarioPRJP1.node[14].lo0.lo 	droppedPkBitError:sum(packetBytes) 	0
attr interpolationmode  none
attr source  dropPkBitError
attr title  "packets dropped/bit error, sum(packetBytes)"
scalar scenarioPRJP1.node[14].lo0.lo 	rcvdPkFromHL:count 	0
attr interpolationmode  none
attr source  packetReceivedFromUpper
attr title  "packets received from higher layer, count"
scalar scenarioPRJP1.node[14].lo0.lo 	rcvdPkFromHL:sum(packetBytes) 	0
attr interpolationmode  none
attr source  packetReceivedFromUpper
attr title  "packets received from higher layer, sum(packetBytes)"
scalar scenarioPRJP1.node[14].lo0.lo 	passedUpPk:count 	0
attr interpolationmode  none
attr source  packetSentToUpper
attr title  "packets passed to higher layer, count"
scalar scenarioPRJP1.node[14].lo0.lo 	passedUpPk:sum(packetBytes) 	0
attr interpolationmode  none
attr source  packetSentToUpper
attr title  "packets passed to higher layer, sum(packetBytes)"
scalar scenarioPRJP1.node[1].app 	"Total sent" 	2590
scalar scenarioPRJP1.node[1].app 	"Total received" 	307
scalar scenarioPRJP1.node[1].app 	"Total deleted" 	409
scalar scenarioPRJP1.node[1].app 	dropPk:count 	409
attr interpolationmode  none
attr source  dropPk
attr title  "packets dropped, count"
scalar scenarioPRJP1.node[1].app 	dropPk:sum(packetBytes) 	209408
attr interpolationmode  none
attr source  dropPk
attr title  "packets dropped, sum(packetBytes)"
scalar scenarioPRJP1.node[1].app 	outOfOrderPk:count 	259
attr interpolationmode  none
attr source  outOfOrderPk
attr title  "packets received out of order, count"
scalar scenarioPRJP1.node[1].app 	outOfOrderPk:sum(packetBytes) 	132608
attr interpolationmode  none
attr source  outOfOrderPk
attr title  "packets received out of order, sum(packetBytes)"
scalar scenarioPRJP1.node[1].app 	rcvdPk:count 	307
attr interpolationmode  none
attr source  rcvdPk
attr title  "packets received, count"
scalar scenarioPRJP1.node[1].app 	rcvdPk:sum(packetBytes) 	157184
attr interpolationmode  none
attr source  rcvdPk
attr title  "packets received, sum(packetBytes)"
statistic scenarioPRJP1.node[1].app 	endToEndDelay:histogram
field count 307
field mean 2.4679677244812
field stddev 4.7941116736423
field sum 757.66609141574
field sqrsum 8902.8485217902
field min 0.000945025215
field max 19.642459172104
attr interpolationmode  none
attr source  messageAge(rcvdPk)
attr title  "delay, histogram"
attr unit  s
bin	-INF	0
bin	-9.60940301517	0
bin	-8.328023276452	0
bin	-7.046643537734	0
bin	-5.765263799016	0
bin	-4.483884060298	0
bin	-3.20250432158	0
bin	-1.921124582862	0
bin	-0.639744844144	216
bin	0.641634894574	15
bin	1.923014633292	6
bin	3.20439437201	11
bin	4.485774110728	4
bin	5.767153849446	2
bin	7.048533588164	4
bin	8.329913326882	13
bin	9.6112930656	5
bin	10.892672804318	8
bin	12.174052543036	8
bin	13.455432281754	2
bin	14.736812020472	5
bin	16.01819175919	2
bin	17.299571497908	1
bin	18.580951236626	5
bin	19.862330975344	0
bin	21.143710714062	0
bin	22.42509045278	0
bin	23.706470191498	0
bin	24.987849930216	0
bin	26.269229668934	0
bin	27.550609407652	0
bin	28.83198914637	0
scalar scenarioPRJP1.node[1].app 	sentPk:count 	2590
attr interpolationmode  none
attr source  sentPk
attr title  "packets sent, count"
scalar scenarioPRJP1.node[1].app 	sentPk:sum(packetBytes) 	1326080
attr interpolationmode  none
attr source  sentPk
attr title  "packets sent, sum(packetBytes)"
scalar scenarioPRJP1.node[1].udp 	droppedPkBadChecksum:count 	0
attr interpolationmode  none
attr title  "packets dropped (checksum error), count"
scalar scenarioPRJP1.node[1].udp 	droppedPkWrongPort:count 	0
attr interpolationmode  none
attr title  "packets dropped (wrong port), count"
scalar scenarioPRJP1.node[1].udp 	passedUpPk:count 	975
attr interpolationmode  none
attr title  "packets passed up, count"
scalar scenarioPRJP1.node[1].udp 	rcvdPk:count 	975
attr interpolationmode  none
attr source  rcvdPk
attr title  "packets received, count"
scalar scenarioPRJP1.node[1].udp 	rcvdPk:sum(packetBytes) 	507000
attr interpolationmode  none
attr source  rcvdPk
attr title  "packets received, sum(packetBytes)"
scalar scenarioPRJP1.node[1].udp 	sentPk:count 	2590
attr interpolationmode  none
attr source  sentPk
attr title  "packets sent, count"
scalar scenarioPRJP1.node[1].udp 	sentPk:sum(packetBytes) 	1346800
attr interpolationmode  none
attr source  sentPk
attr title  "packets sent, sum(packetBytes)"
scalar scenarioPRJP1.node[1].networkLayer.arp 	failedARPResolution:count 	0
attr title  "ARP failed resolutions, count"
scalar scenarioPRJP1.node[1].networkLayer.arp 	completedARPResolution:count 	109
attr title  "ARP completed resolutions, count"
scalar scenarioPRJP1.node[1].networkLayer.arp 	initiatedARPResolution:count 	17
attr title  "ARP initiated resolutions, count"
scalar scenarioPRJP1.node[1].networkLayer.arp 	sentReply:count 	26
attr title  "ARP replies sent, count"
scalar scenarioPRJP1.node[1].networkLayer.arp 	sentReq:count 	17
attr title  "ARP request sent, count"
scalar scenarioPRJP1.node[1].mobility 	startTime 	0.1
scalar scenarioPRJP1.node[1].mobility 	totalTime 	949.9
scalar scenarioPRJP1.node[1].mobility 	stopTime 	950
scalar scenarioPRJP1.node[1].mobility 	minSpeed 	2.4754425130485e-13
scalar scenarioPRJP1.node[1].mobility 	maxSpeed 	19.657911119666
scalar scenarioPRJP1.node[1].mobility 	totalDistance 	10709.62795823
scalar scenarioPRJP1.node[1].mobility 	totalCO2Emission 	2945.6714933977
scalar scenarioPRJP1.node[1].wlan[0].mgmt 	dataQueueLen:max 	40
attr interpolationmode  sample-hold
attr title  "data queue length, max"
scalar scenarioPRJP1.node[1].wlan[0].mgmt 	dataQueueLen:timeavg 	0
attr interpolationmode  sample-hold
attr title  "data queue length, timeavg"
scalar scenarioPRJP1.node[1].wlan[0].mgmt 	dropPkByQueue:count 	0
attr interpolationmode  none
attr source  dropPkByQueue
attr title  "packets dropped by queue, count"
scalar scenarioPRJP1.node[1].wlan[0].mgmt 	dropPkByQueue:sum(packetBytes) 	0
attr interpolationmode  none
attr source  dropPkByQueue
attr title  "packets dropped by queue, sum(packetBytes)"
scalar scenarioPRJP1.node[1].wlan[0].mac 	"number of received packets" 	4773
scalar scenarioPRJP1.node[1].wlan[0].mac 	"number of collisions" 	1261
scalar scenarioPRJP1.node[1].wlan[0].mac 	"number of internal collisions" 	0
scalar scenarioPRJP1.node[1].wlan[0].mac 	"number of retry for AC 0" 	4821
scalar scenarioPRJP1.node[1].wlan[0].mac 	"number of retry for AC 1" 	0
scalar scenarioPRJP1.node[1].wlan[0].mac 	"number of retry for AC 2" 	0
scalar scenarioPRJP1.node[1].wlan[0].mac 	"number of retry for AC 3" 	0
scalar scenarioPRJP1.node[1].wlan[0].mac 	"sent and received bits" 	6292192
scalar scenarioPRJP1.node[1].wlan[0].mac 	"sent packet within AC 0" 	573
scalar scenarioPRJP1.node[1].wlan[0].mac 	"sent packet within AC 1" 	0
scalar scenarioPRJP1.node[1].wlan[0].mac 	"sent packet within AC 2" 	0
scalar scenarioPRJP1.node[1].wlan[0].mac 	"sent packet within AC 3" 	0
scalar scenarioPRJP1.node[1].wlan[0].mac 	"sent in TXOP " 	0
scalar scenarioPRJP1.node[1].wlan[0].mac 	"sentWithoutRetry AC 0" 	534
scalar scenarioPRJP1.node[1].wlan[0].mac 	"sentWithoutRetry AC 1" 	0
scalar scenarioPRJP1.node[1].wlan[0].mac 	"sentWithoutRetry AC 2" 	0
scalar scenarioPRJP1.node[1].wlan[0].mac 	"sentWithoutRetry AC 3" 	0
scalar scenarioPRJP1.node[1].wlan[0].mac 	"numGivenUp AC 0" 	794
scalar scenarioPRJP1.node[1].wlan[0].mac 	"numGivenUp AC 1" 	0
scalar scenarioPRJP1.node[1].wlan[0].mac 	"numGivenUp AC 2" 	0
scalar scenarioPRJP1.node[1].wlan[0].mac 	"numGivenUp AC 3" 	0
scalar scenarioPRJP1.node[1].wlan[0].mac 	"numDropped AC 0" 	0
scalar scenarioPRJP1.node[1].wlan[0].mac 	"numDropped AC 1" 	0
scalar scenarioPRJP1.node[1].wlan[0].mac 	"numDropped AC 2" 	0
scalar scenarioPRJP1.node[1].wlan[0].mac 	"numDropped AC 3" 	0
scalar scenarioPRJP1.node[1].wlan[0].mac 	rcvdPkFromLL:count 	50914
attr interpolationmode  none
attr source  packetReceivedFromLower
attr title  "packets received from lower layer, count"
scalar scenarioPRJP1.node[1].wlan[0].mac 	rcvdPkFromLL:sum(packetBytes) 	11532320
attr interpolationmode  none
attr source  packetReceivedFromLower
attr title  "packets received from lower layer, sum(packetBytes)"
scalar scenarioPRJP1.node[1].wlan[0].mac 	sentDownPk:count 	16449
attr interpolationmode  none
attr source  packetSentToLower
attr title  "packets sent to lower layer, count"
scalar scenarioPRJP1.node[1].wlan[0].mac 	sentDownPk:sum(packetBytes) 	3761330
attr interpolationmode  none
attr source  packetSentToLower
attr title  "packets sent to lower layer, sum(packetBytes)"
scalar scenarioPRJP1.node[1].wlan[0].mac 	rcvdPkFromHL:count 	6855
attr interpolationmode  none
attr source  packetReceivedFromUpper
attr title  "packets received from higher layer, count"
scalar scenarioPRJP1.node[1].wlan[0].mac 	rcvdPkFromHL:sum(packetBytes) 	1197260
attr interpolationmode  none
attr source  packetReceivedFromUpper
attr title  "packets received from higher layer, sum(packetBytes)"
scalar scenarioPRJP1.node[1].wlan[0].mac 	passedUpPk:count 	15161
attr interpolationmode  none
attr source  packetSentToUpper
attr title  "packets passed to higher layer, count"
scalar scenarioPRJP1.node[1].wlan[0].mac 	passedUpPk:sum(packetBytes) 	1863856
attr interpolationmode  none
attr source  packetSentToUpper
attr title  "packets passed to higher layer, sum(packetBytes)"
statistic scenarioPRJP1.node[1].wlan[0].radio 	radioChannel:histogram
field count 1
field mean 3
field stddev -nan
field sum 3
field sqrsum 9
field min 3
field max 3
attr interpolationmode  sample-hold
attr source  radioChannelChanged
attr title  "Radio channel, histogram"
bin	-INF	0
bin	2	0
bin	3	1
bin	4	0
scalar scenarioPRJP1.node[1].wlan[0].radio 	transmissionState:count 	65796
attr interpolationmode  sample-hold
attr source  transmissionStateChanged
attr title  "Radio transmission state, count"
scalar scenarioPRJP1.node[1].wlan[0].radio 	receptionState:count 	134916
attr interpolationmode  sample-hold
attr source  receptionStateChanged
attr title  "Radio reception state, count"
scalar scenarioPRJP1.node[1].wlan[0].radio 	radioMode:count 	32900
attr interpolationmode  sample-hold
attr source  radioModeChanged
attr title  "Radio mode, count"
statistic scenarioPRJP1.node[1].wlan[0].radio 	symbolErrorRate:histogram
field count 0
field mean -nan
field stddev -nan
field sum 0
field sqrsum 0
field min -nan
field max -nan
attr source  symbolErrorRate
attr title  "Symbol error rate, histogram"
bin	-INF	0
bin	-0.5	0
bin	-0.46666666666667	0
bin	-0.43333333333333	0
bin	-0.4	0
bin	-0.36666666666667	0
bin	-0.33333333333333	0
bin	-0.3	0
bin	-0.26666666666667	0
bin	-0.23333333333333	0
bin	-0.2	0
bin	-0.16666666666667	0
bin	-0.13333333333333	0
bin	-0.1	0
bin	-0.066666666666667	0
bin	-0.033333333333333	0
bin	0	0
bin	0.033333333333333	0
bin	0.066666666666667	0
bin	0.1	0
bin	0.13333333333333	0
bin	0.16666666666667	0
bin	0.2	0
bin	0.23333333333333	0
bin	0.26666666666667	0
bin	0.3	0
bin	0.33333333333333	0
bin	0.36666666666667	0
bin	0.4	0
bin	0.43333333333333	0
bin	0.46666666666667	0
bin	0.5	0
statistic scenarioPRJP1.node[1].wlan[0].radio 	bitErrorRate:histogram
field count 0
field mean -nan
field stddev -nan
field sum 0
field sqrsum 0
field min -nan
field max -nan
attr source  bitErrorRate
attr title  "Bit error rate, histogram"
bin	-INF	0
bin	-0.5	0
bin	-0.46666666666667	0
bin	-0.43333333333333	0
bin	-0.4	0
bin	-0.36666666666667	0
bin	-0.33333333333333	0
bin	-0.3	0
bin	-0.26666666666667	0
bin	-0.23333333333333	0
bin	-0.2	0
bin	-0.16666666666667	0
bin	-0.13333333333333	0
bin	-0.1	0
bin	-0.066666666666667	0
bin	-0.033333333333333	0
bin	0	0
bin	0.033333333333333	0
bin	0.066666666666667	0
bin	0.1	0
bin	0.13333333333333	0
bin	0.16666666666667	0
bin	0.2	0
bin	0.23333333333333	0
bin	0.26666666666667	0
bin	0.3	0
bin	0.33333333333333	0
bin	0.36666666666667	0
bin	0.4	0
bin	0.43333333333333	0
bin	0.46666666666667	0
bin	0.5	0
statistic scenarioPRJP1.node[1].wlan[0].radio 	packetErrorRate:histogram
field count 50914
field mean 0.022941867882674
field stddev 0.147356990403
field sum 1168.0622613784
field sqrsum 1132.3266185434
field min 0
field max 1
attr source  packetErrorRate
attr title  "Packet error rate, histogram"
bin	-INF	0
bin	-1	0
bin	0	50043
bin	1	871
bin	2	0
statistic scenarioPRJP1.node[1].wlan[0].radio 	minSNIR:histogram
field count 50914
field mean 37198.568168014
field stddev 140904.7616806
field sum 1893927899.7063
field sqrsum 1.0812858399479e+15
field min 0.00017108007542888
field max 753239.71923443
attr source  minSNIR
attr title  "Min SNIR, histogram"
bin	-INF	0
bin	-1296.5611161615	0
bin	-1123.6748877361	0
bin	-950.78865931068	0
bin	-777.90243088528	0
bin	-605.01620245988	0
bin	-432.12997403448	0
bin	-259.24374560908	0
bin	-86.357517183687	7691
bin	86.528711241711	17264
bin	259.41493966711	8563
bin	432.30116809251	1994
bin	605.18739651791	1178
bin	778.0736249433	736
bin	950.9598533687	598
bin	1123.8460817941	500
bin	1296.7323102195	262
bin	1469.6185386449	151
bin	1642.5047670703	258
bin	1815.3909954957	220
bin	1988.2772239211	198
bin	2161.1634523465	121
bin	2334.0496807719	126
bin	2506.9359091973	119
bin	2679.8221376227	94
bin	2852.7083660481	163
bin	3025.5945944735	243
bin	3198.4808228989	65
bin	3371.3670513243	90
bin	3544.2532797497	41
bin	3717.1395081751	71
bin	3890.0257366005	10168
scalar scenarioPRJP1.node[1].lo0.lo 	droppedPkBitError:count 	0
attr interpolationmode  none
attr source  dropPkBitError
attr title  "packets dropped/bit error, count"
scalar scenarioPRJP1.node[1].lo0.lo 	droppedPkBitError:sum(packetBytes) 	0
attr interpolationmode  none
attr source  dropPkBitError
attr title  "packets dropped/bit error, sum(packetBytes)"
scalar scenarioPRJP1.node[1].lo0.lo 	rcvdPkFromHL:count 	0
attr interpolationmode  none
attr source  packetReceivedFromUpper
attr title  "packets received from higher layer, count"
scalar scenarioPRJP1.node[1].lo0.lo 	rcvdPkFromHL:sum(packetBytes) 	0
attr interpolationmode  none
attr source  packetReceivedFromUpper
attr title  "packets received from higher layer, sum(packetBytes)"
scalar scenarioPRJP1.node[1].lo0.lo 	passedUpPk:count 	0
attr interpolationmode  none
attr source  packetSentToUpper
attr title  "packets passed to higher layer, count"
scalar scenarioPRJP1.node[1].lo0.lo 	passedUpPk:sum(packetBytes) 	0
attr interpolationmode  none
attr source  packetSentToUpper
attr title  "packets passed to higher layer, sum(packetBytes)"
scalar scenarioPRJP1.node[15].app 	"Total sent" 	2615
scalar scenarioPRJP1.node[15].app 	"Total received" 	146
scalar scenarioPRJP1.node[15].app 	"Total deleted" 	258
scalar scenarioPRJP1.node[15].app 	dropPk:count 	258
attr interpolationmode  none
attr source  dropPk
attr title  "packets dropped, count"
scalar scenarioPRJP1.node[15].app 	dropPk:sum(packetBytes) 	132096
attr interpolationmode  none
attr source  dropPk
attr title  "packets dropped, sum(packetBytes)"
scalar scenarioPRJP1.node[15].app 	outOfOrderPk:count 	0
attr interpolationmode  none
attr source  outOfOrderPk
attr title  "packets received out of order, count"
scalar scenarioPRJP1.node[15].app 	outOfOrderPk:sum(packetBytes) 	0
attr interpolationmode  none
attr source  outOfOrderPk
attr title  "packets received out of order, sum(packetBytes)"
scalar scenarioPRJP1.node[15].app 	rcvdPk:count 	146
attr interpolationmode  none
attr source  rcvdPk
attr title  "packets received, count"
scalar scenarioPRJP1.node[15].app 	rcvdPk:sum(packetBytes) 	74752
attr interpolationmode  none
attr source  rcvdPk
attr title  "packets received, sum(packetBytes)"
statistic scenarioPRJP1.node[15].app 	endToEndDelay:histogram
field count 146
field mean 2.312270110586
field stddev 4.7622550056212
field sum 337.59143614556
field sqrsum 4069.068134481
field min 0.000945219752
field max 18.381912975754
attr interpolationmode  none
attr source  messageAge(rcvdPk)
attr title  "delay, histogram"
attr unit  s
bin	-INF	0
bin	-9.189538658249	0
bin	-7.9641408078489	0
bin	-6.7387429574487	0
bin	-5.5133451070486	0
bin	-4.2879472566485	0
bin	-3.0625494062483	0
bin	-1.8371515558482	0
bin	-0.61175370544807	108
bin	0.61364414495207	4
bin	1.8390419953522	3
bin	3.0644398457523	4
bin	4.2898376961525	2
bin	5.5152355465526	1
bin	6.7406333969527	4
bin	7.9660312473529	3
bin	9.191429097753	1
bin	10.416826948153	3
bin	11.642224798553	2
bin	12.867622648953	2
bin	14.093020499354	4
bin	15.318418349754	0
bin	16.543816200154	3
bin	17.769214050554	2
bin	18.994611900954	0
bin	20.220009751354	0
bin	21.445407601754	0
bin	22.670805452154	0
bin	23.896203302555	0
bin	25.121601152955	0
bin	26.346999003355	0
bin	27.572396853755	0
scalar scenarioPRJP1.node[15].app 	sentPk:count 	2615
attr interpolationmode  none
attr source  sentPk
attr title  "packets sent, count"
scalar scenarioPRJP1.node[15].app 	sentPk:sum(packetBytes) 	1338880
attr interpolationmode  none
attr source  sentPk
attr title  "packets sent, sum(packetBytes)"
scalar scenarioPRJP1.node[15].udp 	droppedPkBadChecksum:count 	0
attr interpolationmode  none
attr title  "packets dropped (checksum error), count"
scalar scenarioPRJP1.node[15].udp 	droppedPkWrongPort:count 	0
attr interpolationmode  none
attr title  "packets dropped (wrong port), count"
scalar scenarioPRJP1.node[15].udp 	passedUpPk:count 	404
attr interpolationmode  none
attr title  "packets passed up, count"
scalar scenarioPRJP1.node[15].udp 	rcvdPk:count 	404
attr interpolationmode  none
attr source  rcvdPk
attr title  "packets received, count"
scalar scenarioPRJP1.node[15].udp 	rcvdPk:sum(packetBytes) 	210080
attr interpolationmode  none
attr source  rcvdPk
attr title  "packets received, sum(packetBytes)"
scalar scenarioPRJP1.node[15].udp 	sentPk:count 	2615
attr interpolationmode  none
attr source  sentPk
attr title  "packets sent, count"
scalar scenarioPRJP1.node[15].udp 	sentPk:sum(packetBytes) 	1359800
attr interpolationmode  none
attr source  sentPk
attr title  "packets sent, sum(packetBytes)"
scalar scenarioPRJP1.node[15].networkLayer.arp 	failedARPResolution:count 	0
attr title  "ARP failed resolutions, count"
scalar scenarioPRJP1.node[15].networkLayer.arp 	completedARPResolution:count 	63
attr title  "ARP completed resolutions, count"
scalar scenarioPRJP1.node[15].networkLayer.arp 	initiatedARPResolution:count 	19
attr title  "ARP initiated resolutions, count"
scalar scenarioPRJP1.node[15].networkLayer.arp 	sentReply:count 	12
attr title  "ARP replies sent, count"
scalar scenarioPRJP1.node[15].networkLayer.arp 	sentReq:count 	20
attr title  "ARP request sent, count"
scalar scenarioPRJP1.node[15].mobility 	startTime 	2.5
scalar scenarioPRJP1.node[15].mobility 	totalTime 	947.5
scalar scenarioPRJP1.node[15].mobility 	stopTime 	950
scalar scenarioPRJP1.node[15].mobility 	minSpeed 	2.4754894968544e-13
scalar scenarioPRJP1.node[15].mobility 	maxSpeed 	17.698100634495
scalar scenarioPRJP1.node[15].mobility 	totalDistance 	9634.328423917
scalar scenarioPRJP1.node[15].mobility 	totalCO2Emission 	2552.5045539876
scalar scenarioPRJP1.node[15].wlan[0].mgmt 	dataQueueLen:max 	38
attr interpolationmode  sample-hold
attr title  "data queue length, max"
scalar scenarioPRJP1.node[15].wlan[0].mgmt 	dataQueueLen:timeavg 	0
attr interpolationmode  sample-hold
attr title  "data queue length, timeavg"
scalar scenarioPRJP1.node[15].wlan[0].mgmt 	dropPkByQueue:count 	0
attr interpolationmode  none
attr source  dropPkByQueue
attr title  "packets dropped by queue, count"
scalar scenarioPRJP1.node[15].wlan[0].mgmt 	dropPkByQueue:sum(packetBytes) 	0
attr interpolationmode  none
attr source  dropPkByQueue
attr title  "packets dropped by queue, sum(packetBytes)"
scalar scenarioPRJP1.node[15].wlan[0].mac 	"number of received packets" 	2789
scalar scenarioPRJP1.node[15].wlan[0].mac 	"number of collisions" 	552
scalar scenarioPRJP1.node[15].wlan[0].mac 	"number of internal collisions" 	0
scalar scenarioPRJP1.node[15].wlan[0].mac 	"number of retry for AC 0" 	2119
scalar scenarioPRJP1.node[15].wlan[0].mac 	"number of retry for AC 1" 	0
scalar scenarioPRJP1.node[15].wlan[0].mac 	"number of retry for AC 2" 	0
scalar scenarioPRJP1.node[15].wlan[0].mac 	"number of retry for AC 3" 	0
scalar scenarioPRJP1.node[15].wlan[0].mac 	"sent and received bits" 	2923520
scalar scenarioPRJP1.node[15].wlan[0].mac 	"sent packet within AC 0" 	199
scalar scenarioPRJP1.node[15].wlan[0].mac 	"sent packet within AC 1" 	0
scalar scenarioPRJP1.node[15].wlan[0].mac 	"sent packet within AC 2" 	0
scalar scenarioPRJP1.node[15].wlan[0].mac 	"sent packet within AC 3" 	0
scalar scenarioPRJP1.node[15].wlan[0].mac 	"sent in TXOP " 	0
scalar scenarioPRJP1.node[15].wlan[0].mac 	"sentWithoutRetry AC 0" 	188
scalar scenarioPRJP1.node[15].wlan[0].mac 	"sentWithoutRetry AC 1" 	0
scalar scenarioPRJP1.node[15].wlan[0].mac 	"sentWithoutRetry AC 2" 	0
scalar scenarioPRJP1.node[15].wlan[0].mac 	"sentWithoutRetry AC 3" 	0
scalar scenarioPRJP1.node[15].wlan[0].mac 	"numGivenUp AC 0" 	351
scalar scenarioPRJP1.node[15].wlan[0].mac 	"numGivenUp AC 1" 	0
scalar scenarioPRJP1.node[15].wlan[0].mac 	"numGivenUp AC 2" 	0
scalar scenarioPRJP1.node[15].wlan[0].mac 	"numGivenUp AC 3" 	0
scalar scenarioPRJP1.node[15].wlan[0].mac 	"numDropped AC 0" 	0
scalar scenarioPRJP1.node[15].wlan[0].mac 	"numDropped AC 1" 	0
scalar scenarioPRJP1.node[15].wlan[0].mac 	"numDropped AC 2" 	0
scalar scenarioPRJP1.node[15].wlan[0].mac 	"numDropped AC 3" 	0
scalar scenarioPRJP1.node[15].wlan[0].mac 	rcvdPkFromLL:count 	19682
attr interpolationmode  none
attr source  packetReceivedFromLower
attr title  "packets received from lower layer, count"
scalar scenarioPRJP1.node[15].wlan[0].mac 	rcvdPkFromLL:sum(packetBytes) 	4839374
attr interpolationmode  none
attr source  packetReceivedFromLower
attr title  "packets received from lower layer, sum(packetBytes)"
scalar scenarioPRJP1.node[15].wlan[0].mac 	sentDownPk:count 	8452
attr interpolationmode  none
attr source  packetSentToLower
attr title  "packets sent to lower layer, count"
scalar scenarioPRJP1.node[15].wlan[0].mac 	sentDownPk:sum(packetBytes) 	1704422
attr interpolationmode  none
attr source  packetSentToLower
attr title  "packets sent to lower layer, sum(packetBytes)"
scalar scenarioPRJP1.node[15].wlan[0].mac 	rcvdPkFromHL:count 	3544
attr interpolationmode  none
attr source  packetReceivedFromUpper
attr title  "packets received from higher layer, count"
scalar scenarioPRJP1.node[15].wlan[0].mac 	rcvdPkFromHL:sum(packetBytes) 	550216
attr interpolationmode  none
attr source  packetReceivedFromUpper
attr title  "packets received from higher layer, sum(packetBytes)"
scalar scenarioPRJP1.node[15].wlan[0].mac 	passedUpPk:count 	5633
attr interpolationmode  none
attr source  packetSentToUpper
attr title  "packets passed to higher layer, count"
scalar scenarioPRJP1.node[15].wlan[0].mac 	passedUpPk:sum(packetBytes) 	774276
attr interpolationmode  none
attr source  packetSentToUpper
attr title  "packets passed to higher layer, sum(packetBytes)"
statistic scenarioPRJP1.node[15].wlan[0].radio 	radioChannel:histogram
field count 1
field mean 3
field stddev -nan
field sum 3
field sqrsum 9
field min 3
field max 3
attr interpolationmode  sample-hold
attr source  radioChannelChanged
attr title  "Radio channel, histogram"
bin	-INF	0
bin	2	0
bin	3	1
bin	4	0
scalar scenarioPRJP1.node[15].wlan[0].radio 	transmissionState:count 	33808
attr interpolationmode  sample-hold
attr source  transmissionStateChanged
attr title  "Radio transmission state, count"
scalar scenarioPRJP1.node[15].wlan[0].radio 	receptionState:count 	56296
attr interpolationmode  sample-hold
attr source  receptionStateChanged
attr title  "Radio reception state, count"
scalar scenarioPRJP1.node[15].wlan[0].radio 	radioMode:count 	16906
attr interpolationmode  sample-hold
attr source  radioModeChanged
attr title  "Radio mode, count"
statistic scenarioPRJP1.node[15].wlan[0].radio 	symbolErrorRate:histogram
field count 0
field mean -nan
field stddev -nan
field sum 0
field sqrsum 0
field min -nan
field max -nan
attr source  symbolErrorRate
attr title  "Symbol error rate, histogram"
bin	-INF	0
bin	-0.5	0
bin	-0.46666666666667	0
bin	-0.43333333333333	0
bin	-0.4	0
bin	-0.36666666666667	0
bin	-0.33333333333333	0
bin	-0.3	0
bin	-0.26666666666667	0
bin	-0.23333333333333	0
bin	-0.2	0
bin	-0.16666666666667	0
bin	-0.13333333333333	0
bin	-0.1	0
bin	-0.066666666666667	0
bin	-0.033333333333333	0
bin	0	0
bin	0.033333333333333	0
bin	0.066666666666667	0
bin	0.1	0
bin	0.13333333333333	0
bin	0.16666666666667	0
bin	0.2	0
bin	0.23333333333333	0
bin	0.26666666666667	0
bin	0.3	0
bin	0.33333333333333	0
bin	0.36666666666667	0
bin	0.4	0
bin	0.43333333333333	0
bin	0.46666666666667	0
bin	0.5	0
statistic scenarioPRJP1.node[15].wlan[0].radio 	bitErrorRate:histogram
field count 0
field mean -nan
field stddev -nan
field sum 0
field sqrsum 0
field min -nan
field max -nan
attr source  bitErrorRate
attr title  "Bit error rate, histogram"
bin	-INF	0
bin	-0.5	0
bin	-0.46666666666667	0
bin	-0.43333333333333	0
bin	-0.4	0
bin	-0.36666666666667	0
bin	-0.33333333333333	0
bin	-0.3	0
bin	-0.26666666666667	0
bin	-0.23333333333333	0
bin	-0.2	0
bin	-0.16666666666667	0
bin	-0.13333333333333	0
bin	-0.1	0
bin	-0.066666666666667	0
bin	-0.033333333333333	0
bin	0	0
bin	0.033333333333333	0
bin	0.066666666666667	0
bin	0.1	0
bin	0.13333333333333	0
bin	0.16666666666667	0
bin	0.2	0
bin	0.23333333333333	0
bin	0.26666666666667	0
bin	0.3	0
bin	0.33333333333333	0
bin	0.36666666666667	0
bin	0.4	0
bin	0.43333333333333	0
bin	0.46666666666667	0
bin	0.5	0
statistic scenarioPRJP1.node[15].wlan[0].radio 	packetErrorRate:histogram
field count 19682
field mean 0.026641316014341
field stddev 0.15712428391413
field sum 524.35438179426
field sqrsum 499.8548177495
field min 0
field max 1
attr source  packetErrorRate
attr title  "Packet error rate, histogram"
bin	-INF	0
bin	-0.5	0
bin	-0.46666666666667	0
bin	-0.43333333333333	0
bin	-0.4	0
bin	-0.36666666666667	0
bin	-0.33333333333333	0
bin	-0.3	0
bin	-0.26666666666667	0
bin	-0.23333333333333	0
bin	-0.2	0
bin	-0.16666666666667	0
bin	-0.13333333333333	0
bin	-0.1	0
bin	-0.066666666666667	0
bin	-0.033333333333333	0
bin	0	19067
bin	0.033333333333333	27
bin	0.066666666666667	7
bin	0.1	7
bin	0.13333333333333	2
bin	0.16666666666667	5
bin	0.2	13
bin	0.23333333333333	8
bin	0.26666666666667	5
bin	0.3	1
bin	0.33333333333333	7
bin	0.36666666666667	11
bin	0.4	0
bin	0.43333333333333	2
bin	0.46666666666667	2
bin	0.5	518
statistic scenarioPRJP1.node[15].wlan[0].radio 	minSNIR:histogram
field count 19682
field mean 9997.5301239672
field stddev 54709.691770832
field sum 196771387.89992
field sqrsum 60875420382056
field min 0.014767446928154
field max 753239.71923443
attr source  minSNIR
attr title  "Min SNIR, histogram"
bin	-INF	0
bin	-1473.3145340273	0
bin	-1274.6778748899	0
bin	-1076.0412157525	0
bin	-877.40455661515	0
bin	-678.76789747776	0
bin	-480.13123834037	0
bin	-281.49457920298	0
bin	-82.857920065588	4975
bin	115.7787390718	8115
bin	314.41539820919	1575
bin	513.05205734658	938
bin	711.68871648397	229
bin	910.32537562136	445
bin	1108.9620347588	176
bin	1307.5986938961	157
bin	1506.2353530335	86
bin	1704.8720121709	78
bin	1903.5086713083	75
bin	2102.1453304457	46
bin	2300.7819895831	50
bin	2499.4186487205	36
bin	2698.0553078579	34
bin	2896.6919669953	32
bin	3095.3286261327	47
bin	3293.96528527	44
bin	3492.6019444074	27
bin	3691.2386035448	34
bin	3889.8752626822	14
bin	4088.5119218196	47
bin	4287.148580957	30
bin	4485.7852400944	2392
scalar scenarioPRJP1.node[15].lo0.lo 	droppedPkBitError:count 	0
attr interpolationmode  none
attr source  dropPkBitError
attr title  "packets dropped/bit error, count"
scalar scenarioPRJP1.node[15].lo0.lo 	droppedPkBitError:sum(packetBytes) 	0
attr interpolationmode  none
attr source  dropPkBitError
attr title  "packets dropped/bit error, sum(packetBytes)"
scalar scenarioPRJP1.node[15].lo0.lo 	rcvdPkFromHL:count 	0
attr interpolationmode  none
attr source  packetReceivedFromUpper
attr title  "packets received from higher layer, count"
scalar scenarioPRJP1.node[15].lo0.lo 	rcvdPkFromHL:sum(packetBytes) 	0
attr interpolationmode  none
attr source  packetReceivedFromUpper
attr title  "packets received from higher layer, sum(packetBytes)"
scalar scenarioPRJP1.node[15].lo0.lo 	passedUpPk:count 	0
attr interpolationmode  none
attr source  packetSentToUpper
attr title  "packets passed to higher layer, count"
scalar scenarioPRJP1.node[15].lo0.lo 	passedUpPk:sum(packetBytes) 	0
attr interpolationmode  none
attr source  packetSentToUpper
attr title  "packets passed to higher layer, sum(packetBytes)"
scalar scenarioPRJP1.node[2].app 	"Total sent" 	2607
scalar scenarioPRJP1.node[2].app 	"Total received" 	218
scalar scenarioPRJP1.node[2].app 	"Total deleted" 	130
scalar scenarioPRJP1.node[2].app 	dropPk:count 	130
attr interpolationmode  none
attr source  dropPk
attr title  "packets dropped, count"
scalar scenarioPRJP1.node[2].app 	dropPk:sum(packetBytes) 	66560
attr interpolationmode  none
attr source  dropPk
attr title  "packets dropped, sum(packetBytes)"
scalar scenarioPRJP1.node[2].app 	outOfOrderPk:count 	88
attr interpolationmode  none
attr source  outOfOrderPk
attr title  "packets received out of order, count"
scalar scenarioPRJP1.node[2].app 	outOfOrderPk:sum(packetBytes) 	45056
attr interpolationmode  none
attr source  outOfOrderPk
attr title  "packets received out of order, sum(packetBytes)"
scalar scenarioPRJP1.node[2].app 	rcvdPk:count 	218
attr interpolationmode  none
attr source  rcvdPk
attr title  "packets received, count"
scalar scenarioPRJP1.node[2].app 	rcvdPk:sum(packetBytes) 	111616
attr interpolationmode  none
attr source  rcvdPk
attr title  "packets received, sum(packetBytes)"
statistic scenarioPRJP1.node[2].app 	endToEndDelay:histogram
field count 218
field mean 1.142776973358
field stddev 3.6788116047143
field sum 249.12538019204
field sqrsum 3221.4978445494
field min 0.000945011007
field max 18.868498363675
attr interpolationmode  none
attr source  messageAge(rcvdPk)
attr title  "delay, histogram"
attr unit  s
bin	-INF	0
bin	-9.4328316218465	0
bin	-8.1749947336011	0
bin	-6.9171578453557	0
bin	-5.6593209571103	0
bin	-4.4014840688649	0
bin	-3.1436471806195	0
bin	-1.8858102923741	0
bin	-0.6279734041287	193
bin	0.6298634841167	3
bin	1.8877003723621	1
bin	3.1455372606075	2
bin	4.4033741488529	2
bin	5.6612110370983	1
bin	6.9190479253437	1
bin	8.1768848135891	1
bin	9.4347217018345	3
bin	10.69255859008	1
bin	11.950395478325	2
bin	13.208232366571	2
bin	14.466069254816	0
bin	15.723906143061	4
bin	16.981743031307	1
bin	18.239579919552	1
bin	19.497416807798	0
bin	20.755253696043	0
bin	22.013090584288	0
bin	23.270927472534	0
bin	24.528764360779	0
bin	25.786601249025	0
bin	27.04443813727	0
bin	28.302275025515	0
scalar scenarioPRJP1.node[2].app 	sentPk:count 	2607
attr interpolationmode  none
attr source  sentPk
attr title  "packets sent, count"
scalar scenarioPRJP1.node[2].app 	sentPk:sum(packetBytes) 	1334784
attr interpolationmode  none
attr source  sentPk
attr title  "packets sent, sum(packetBytes)"
scalar scenarioPRJP1.node[2].udp 	droppedPkBadChecksum:count 	0
attr interpolationmode  none
attr title  "packets dropped (checksum error), count"
scalar scenarioPRJP1.node[2].udp 	droppedPkWrongPort:count 	0
attr interpolationmode  none
attr title  "packets dropped (wrong port), count"
scalar scenarioPRJP1.node[2].udp 	passedUpPk:count 	436
attr interpolationmode  none
attr title  "packets passed up, count"
scalar scenarioPRJP1.node[2].udp 	rcvdPk:count 	436
attr interpolationmode  none
attr source  rcvdPk
attr title  "packets received, count"
scalar scenarioPRJP1.node[2].udp 	rcvdPk:sum(packetBytes) 	226720
attr interpolationmode  none
attr source  rcvdPk
attr title  "packets received, sum(packetBytes)"
scalar scenarioPRJP1.node[2].udp 	sentPk:count 	2607
attr interpolationmode  none
attr source  sentPk
attr title  "packets sent, count"
scalar scenarioPRJP1.node[2].udp 	sentPk:sum(packetBytes) 	1355640
attr interpolationmode  none
attr source  sentPk
attr title  "packets sent, sum(packetBytes)"
scalar scenarioPRJP1.node[2].networkLayer.arp 	failedARPResolution:count 	0
attr title  "ARP failed resolutions, count"
scalar scenarioPRJP1.node[2].networkLayer.arp 	completedARPResolution:count 	92
attr title  "ARP completed resolutions, count"
scalar scenarioPRJP1.node[2].networkLayer.arp 	initiatedARPResolution:count 	23
attr title  "ARP initiated resolutions, count"
scalar scenarioPRJP1.node[2].networkLayer.arp 	sentReply:count 	18
attr title  "ARP replies sent, count"
scalar scenarioPRJP1.node[2].networkLayer.arp 	sentReq:count 	27
attr title  "ARP request sent, count"
scalar scenarioPRJP1.node[2].mobility 	startTime 	0.1
scalar scenarioPRJP1.node[2].mobility 	totalTime 	949.9
scalar scenarioPRJP1.node[2].mobility 	stopTime 	950
scalar scenarioPRJP1.node[2].mobility 	minSpeed 	2.476321784831e-13
scalar scenarioPRJP1.node[2].mobility 	maxSpeed 	19.599721586814
scalar scenarioPRJP1.node[2].mobility 	totalDistance 	10392.114465212
scalar scenarioPRJP1.node[2].mobility 	totalCO2Emission 	2979.3644997744
scalar scenarioPRJP1.node[2].wlan[0].mgmt 	dataQueueLen:max 	44
attr interpolationmode  sample-hold
attr title  "data queue length, max"
scalar scenarioPRJP1.node[2].wlan[0].mgmt 	dataQueueLen:timeavg 	0.00010897935273924
attr interpolationmode  sample-hold
attr title  "data queue length, timeavg"
scalar scenarioPRJP1.node[2].wlan[0].mgmt 	dropPkByQueue:count 	0
attr interpolationmode  none
attr source  dropPkByQueue
attr title  "packets dropped by queue, count"
scalar scenarioPRJP1.node[2].wlan[0].mgmt 	dropPkByQueue:sum(packetBytes) 	0
attr interpolationmode  none
attr source  dropPkByQueue
attr title  "packets dropped by queue, sum(packetBytes)"
scalar scenarioPRJP1.node[2].wlan[0].mac 	"number of received packets" 	4187
scalar scenarioPRJP1.node[2].wlan[0].mac 	"number of collisions" 	1491
scalar scenarioPRJP1.node[2].wlan[0].mac 	"number of internal collisions" 	0
scalar scenarioPRJP1.node[2].wlan[0].mac 	"number of retry for AC 0" 	4610
scalar scenarioPRJP1.node[2].wlan[0].mac 	"number of retry for AC 1" 	0
scalar scenarioPRJP1.node[2].wlan[0].mac 	"number of retry for AC 2" 	0
scalar scenarioPRJP1.node[2].wlan[0].mac 	"number of retry for AC 3" 	0
scalar scenarioPRJP1.node[2].wlan[0].mac 	"sent and received bits" 	5200736
scalar scenarioPRJP1.node[2].wlan[0].mac 	"sent packet within AC 0" 	522
scalar scenarioPRJP1.node[2].wlan[0].mac 	"sent packet within AC 1" 	0
scalar scenarioPRJP1.node[2].wlan[0].mac 	"sent packet within AC 2" 	0
scalar scenarioPRJP1.node[2].wlan[0].mac 	"sent packet within AC 3" 	0
scalar scenarioPRJP1.node[2].wlan[0].mac 	"sent in TXOP " 	0
scalar scenarioPRJP1.node[2].wlan[0].mac 	"sentWithoutRetry AC 0" 	504
scalar scenarioPRJP1.node[2].wlan[0].mac 	"sentWithoutRetry AC 1" 	0
scalar scenarioPRJP1.node[2].wlan[0].mac 	"sentWithoutRetry AC 2" 	0
scalar scenarioPRJP1.node[2].wlan[0].mac 	"sentWithoutRetry AC 3" 	0
scalar scenarioPRJP1.node[2].wlan[0].mac 	"numGivenUp AC 0" 	764
scalar scenarioPRJP1.node[2].wlan[0].mac 	"numGivenUp AC 1" 	0
scalar scenarioPRJP1.node[2].wlan[0].mac 	"numGivenUp AC 2" 	0
scalar scenarioPRJP1.node[2].wlan[0].mac 	"numGivenUp AC 3" 	0
scalar scenarioPRJP1.node[2].wlan[0].mac 	"numDropped AC 0" 	9
scalar scenarioPRJP1.node[2].wlan[0].mac 	"numDropped AC 1" 	0
scalar scenarioPRJP1.node[2].wlan[0].mac 	"numDropped AC 2" 	0
scalar scenarioPRJP1.node[2].wlan[0].mac 	"numDropped AC 3" 	0
scalar scenarioPRJP1.node[2].wlan[0].mac 	rcvdPkFromLL:count 	37337
attr interpolationmode  none
attr source  packetReceivedFromLower
attr title  "packets received from lower layer, count"
scalar scenarioPRJP1.node[2].wlan[0].mac 	rcvdPkFromLL:sum(packetBytes) 	8531142
attr interpolationmode  none
attr source  packetReceivedFromLower
attr title  "packets received from lower layer, sum(packetBytes)"
scalar scenarioPRJP1.node[2].wlan[0].mac 	sentDownPk:count 	14285
attr interpolationmode  none
attr source  packetSentToLower
attr title  "packets sent to lower layer, count"
scalar scenarioPRJP1.node[2].wlan[0].mac 	sentDownPk:sum(packetBytes) 	3501774
attr interpolationmode  none
attr source  packetSentToLower
attr title  "packets sent to lower layer, sum(packetBytes)"
scalar scenarioPRJP1.node[2].wlan[0].mac 	rcvdPkFromHL:count 	5497
attr interpolationmode  none
attr source  packetReceivedFromUpper
attr title  "packets received from higher layer, count"
scalar scenarioPRJP1.node[2].wlan[0].mac 	rcvdPkFromHL:sum(packetBytes) 	1048792
attr interpolationmode  none
attr source  packetReceivedFromUpper
attr title  "packets received from higher layer, sum(packetBytes)"
scalar scenarioPRJP1.node[2].wlan[0].mac 	passedUpPk:count 	11428
attr interpolationmode  none
attr source  packetSentToUpper
attr title  "packets passed to higher layer, count"
scalar scenarioPRJP1.node[2].wlan[0].mac 	passedUpPk:sum(packetBytes) 	1487828
attr interpolationmode  none
attr source  packetSentToUpper
attr title  "packets passed to higher layer, sum(packetBytes)"
statistic scenarioPRJP1.node[2].wlan[0].radio 	radioChannel:histogram
field count 1
field mean 3
field stddev -nan
field sum 3
field sqrsum 9
field min 3
field max 3
attr interpolationmode  sample-hold
attr source  radioChannelChanged
attr title  "Radio channel, histogram"
bin	-INF	0
bin	2	0
bin	3	1
bin	4	0
scalar scenarioPRJP1.node[2].wlan[0].radio 	transmissionState:count 	57140
attr interpolationmode  sample-hold
attr source  transmissionStateChanged
attr title  "Radio transmission state, count"
scalar scenarioPRJP1.node[2].wlan[0].radio 	receptionState:count 	103447
attr interpolationmode  sample-hold
attr source  receptionStateChanged
attr title  "Radio reception state, count"
scalar scenarioPRJP1.node[2].wlan[0].radio 	radioMode:count 	28572
attr interpolationmode  sample-hold
attr source  radioModeChanged
attr title  "Radio mode, count"
statistic scenarioPRJP1.node[2].wlan[0].radio 	symbolErrorRate:histogram
field count 0
field mean -nan
field stddev -nan
field sum 0
field sqrsum 0
field min -nan
field max -nan
attr source  symbolErrorRate
attr title  "Symbol error rate, histogram"
bin	-INF	0
bin	-0.5	0
bin	-0.46666666666667	0
bin	-0.43333333333333	0
bin	-0.4	0
bin	-0.36666666666667	0
bin	-0.33333333333333	0
bin	-0.3	0
bin	-0.26666666666667	0
bin	-0.23333333333333	0
bin	-0.2	0
bin	-0.16666666666667	0
bin	-0.13333333333333	0
bin	-0.1	0
bin	-0.066666666666667	0
bin	-0.033333333333333	0
bin	0	0
bin	0.033333333333333	0
bin	0.066666666666667	0
bin	0.1	0
bin	0.13333333333333	0
bin	0.16666666666667	0
bin	0.2	0
bin	0.23333333333333	0
bin	0.26666666666667	0
bin	0.3	0
bin	0.33333333333333	0
bin	0.36666666666667	0
bin	0.4	0
bin	0.43333333333333	0
bin	0.46666666666667	0
bin	0.5	0
statistic scenarioPRJP1.node[2].wlan[0].radio 	bitErrorRate:histogram
field count 0
field mean -nan
field stddev -nan
field sum 0
field sqrsum 0
field min -nan
field max -nan
attr source  bitErrorRate
attr title  "Bit error rate, histogram"
bin	-INF	0
bin	-0.5	0
bin	-0.46666666666667	0
bin	-0.43333333333333	0
bin	-0.4	0
bin	-0.36666666666667	0
bin	-0.33333333333333	0
bin	-0.3	0
bin	-0.26666666666667	0
bin	-0.23333333333333	0
bin	-0.2	0
bin	-0.16666666666667	0
bin	-0.13333333333333	0
bin	-0.1	0
bin	-0.066666666666667	0
bin	-0.033333333333333	0
bin	0	0
bin	0.033333333333333	0
bin	0.066666666666667	0
bin	0.1	0
bin	0.13333333333333	0
bin	0.16666666666667	0
bin	0.2	0
bin	0.23333333333333	0
bin	0.26666666666667	0
bin	0.3	0
bin	0.33333333333333	0
bin	0.36666666666667	0
bin	0.4	0
bin	0.43333333333333	0
bin	0.46666666666667	0
bin	0.5	0
statistic scenarioPRJP1.node[2].wlan[0].radio 	packetErrorRate:histogram
field count 37337
field mean 0.037858884086422
field stddev 0.1844579607699
field sum 1413.5371551347
field sqrsum 1323.8626054915
field min 0
field max 1
attr source  packetErrorRate
attr title  "Packet error rate, histogram"
bin	-INF	0
bin	-0.5	0
bin	-0.46666666666667	0
bin	-0.43333333333333	0
bin	-0.4	0
bin	-0.36666666666667	0
bin	-0.33333333333333	0
bin	-0.3	0
bin	-0.26666666666667	0
bin	-0.23333333333333	0
bin	-0.2	0
bin	-0.16666666666667	0
bin	-0.13333333333333	0
bin	-0.1	0
bin	-0.066666666666667	0
bin	-0.033333333333333	0
bin	0	35572
bin	0.033333333333333	61
bin	0.066666666666667	56
bin	0.1	33
bin	0.13333333333333	37
bin	0.16666666666667	36
bin	0.2	29
bin	0.23333333333333	20
bin	0.26666666666667	26
bin	0.3	15
bin	0.33333333333333	6
bin	0.36666666666667	21
bin	0.4	22
bin	0.43333333333333	1
bin	0.46666666666667	15
bin	0.5	1387
statistic scenarioPRJP1.node[2].wlan[0].radio 	minSNIR:histogram
field count 37337
field mean 58479.545816772
field stddev 189475.46231592
field sum 2183450802.1608
field sqrsum 1.4680851110328e+15
field min 0.00016797700378062
field max 1766055.1251352
attr source  minSNIR
attr title  "Min SNIR, histogram"
bin	-INF	0
bin	-86273.00552061	0
bin	-74561.880920068	0
bin	-62850.756319526	0
bin	-51139.631718983	0
bin	-39428.507118441	0
bin	-27717.382517899	0
bin	-16006.257917356	0
bin	-4295.1333168141	30903
bin	7415.9912837282	1302
bin	19127.11588427	1065
bin	30838.240484813	189
bin	42549.365085355	181
bin	54260.489685897	142
bin	65971.61428644	80
bin	77682.738886982	72
bin	89393.863487524	38
bin	101104.98808807	61
bin	112816.11268861	39
bin	124527.23728915	16
bin	136238.36188969	47
bin	147949.48649024	21
bin	159660.61109078	64
bin	171371.73569132	218
bin	183082.86029186	10
bin	194793.98489241	5
bin	206505.10949295	6
bin	218216.23409349	2
bin	229927.35869403	4
bin	241638.48329457	1
bin	253349.60789512	4
bin	265060.73249566	2867
scalar scenarioPRJP1.node[2].lo0.lo 	droppedPkBitError:count 	0
attr interpolationmode  none
attr source  dropPkBitError
attr title  "packets dropped/bit error, count"
scalar scenarioPRJP1.node[2].lo0.lo 	droppedPkBitError:sum(packetBytes) 	0
attr interpolationmode  none
attr source  dropPkBitError
attr title  "packets dropped/bit error, sum(packetBytes)"
scalar scenarioPRJP1.node[2].lo0.lo 	rcvdPkFromHL:count 	0
attr interpolationmode  none
attr source  packetReceivedFromUpper
attr title  "packets received from higher layer, count"
scalar scenarioPRJP1.node[2].lo0.lo 	rcvdPkFromHL:sum(packetBytes) 	0
attr interpolationmode  none
attr source  packetReceivedFromUpper
attr title  "packets received from higher layer, sum(packetBytes)"
scalar scenarioPRJP1.node[2].lo0.lo 	passedUpPk:count 	0
attr interpolationmode  none
attr source  packetSentToUpper
attr title  "packets passed to higher layer, count"
scalar scenarioPRJP1.node[2].lo0.lo 	passedUpPk:sum(packetBytes) 	0
attr interpolationmode  none
attr source  packetSentToUpper
attr title  "packets passed to higher layer, sum(packetBytes)"
scalar scenarioPRJP1.node[16].app 	"Total sent" 	2597
scalar scenarioPRJP1.node[16].app 	"Total received" 	176
scalar scenarioPRJP1.node[16].app 	"Total deleted" 	214
scalar scenarioPRJP1.node[16].app 	dropPk:count 	214
attr interpolationmode  none
attr source  dropPk
attr title  "packets dropped, count"
scalar scenarioPRJP1.node[16].app 	dropPk:sum(packetBytes) 	109568
attr interpolationmode  none
attr source  dropPk
attr title  "packets dropped, sum(packetBytes)"
scalar scenarioPRJP1.node[16].app 	outOfOrderPk:count 	76
attr interpolationmode  none
attr source  outOfOrderPk
attr title  "packets received out of order, count"
scalar scenarioPRJP1.node[16].app 	outOfOrderPk:sum(packetBytes) 	38912
attr interpolationmode  none
attr source  outOfOrderPk
attr title  "packets received out of order, sum(packetBytes)"
scalar scenarioPRJP1.node[16].app 	rcvdPk:count 	176
attr interpolationmode  none
attr source  rcvdPk
attr title  "packets received, count"
scalar scenarioPRJP1.node[16].app 	rcvdPk:sum(packetBytes) 	90112
attr interpolationmode  none
attr source  rcvdPk
attr title  "packets received, sum(packetBytes)"
statistic scenarioPRJP1.node[16].app 	endToEndDelay:histogram
field count 176
field mean 1.2457175616873
field stddev 3.5537712448413
field sum 219.24629085696
field sqrsum 2483.244715471
field min 0.000945030015
field max 19.096835462651
attr interpolationmode  none
attr source  messageAge(rcvdPk)
attr title  "delay, histogram"
attr unit  s
bin	-INF	0
bin	-8.276465823029	0
bin	-7.1728110426231	0
bin	-6.0691562622173	0
bin	-4.9655014818114	0
bin	-3.8618467014055	0
bin	-2.7581919209997	0
bin	-1.6545371405938	0
bin	-0.55088236018793	149
bin	0.55277242021793	4
bin	1.6564272006238	1
bin	2.7600819810297	3
bin	3.8637367614355	2
bin	4.9673915418414	1
bin	6.0710463222473	1
bin	7.1747011026531	2
bin	8.278355883059	1
bin	9.3820106634649	4
bin	10.485665443871	2
bin	11.589320224277	2
bin	12.692975004682	0
bin	13.796629785088	1
bin	14.900284565494	0
bin	16.0039393459	1
bin	17.107594126306	0
bin	18.211248906712	2
bin	19.314903687118	0
bin	20.418558467524	0
bin	21.522213247929	0
bin	22.625868028335	0
bin	23.729522808741	0
bin	24.833177589147	0
scalar scenarioPRJP1.node[16].app 	sentPk:count 	2597
attr interpolationmode  none
attr source  sentPk
attr title  "packets sent, count"
scalar scenarioPRJP1.node[16].app 	sentPk:sum(packetBytes) 	1329664
attr interpolationmode  none
attr source  sentPk
attr title  "packets sent, sum(packetBytes)"
scalar scenarioPRJP1.node[16].udp 	droppedPkBadChecksum:count 	0
attr interpolationmode  none
attr title  "packets dropped (checksum error), count"
scalar scenarioPRJP1.node[16].udp 	droppedPkWrongPort:count 	0
attr interpolationmode  none
attr title  "packets dropped (wrong port), count"
scalar scenarioPRJP1.node[16].udp 	passedUpPk:count 	466
attr interpolationmode  none
attr title  "packets passed up, count"
scalar scenarioPRJP1.node[16].udp 	rcvdPk:count 	466
attr interpolationmode  none
attr source  rcvdPk
attr title  "packets received, count"
scalar scenarioPRJP1.node[16].udp 	rcvdPk:sum(packetBytes) 	242320
attr interpolationmode  none
attr source  rcvdPk
attr title  "packets received, sum(packetBytes)"
scalar scenarioPRJP1.node[16].udp 	sentPk:count 	2597
attr interpolationmode  none
attr source  sentPk
attr title  "packets sent, count"
scalar scenarioPRJP1.node[16].udp 	sentPk:sum(packetBytes) 	1350440
attr interpolationmode  none
attr source  sentPk
attr title  "packets sent, sum(packetBytes)"
scalar scenarioPRJP1.node[16].networkLayer.arp 	failedARPResolution:count 	1
attr title  "ARP failed resolutions, count"
scalar scenarioPRJP1.node[16].networkLayer.arp 	completedARPResolution:count 	83
attr title  "ARP completed resolutions, count"
scalar scenarioPRJP1.node[16].networkLayer.arp 	initiatedARPResolution:count 	21
attr title  "ARP initiated resolutions, count"
scalar scenarioPRJP1.node[16].networkLayer.arp 	sentReply:count 	23
attr title  "ARP replies sent, count"
scalar scenarioPRJP1.node[16].networkLayer.arp 	sentReq:count 	26
attr title  "ARP request sent, count"
scalar scenarioPRJP1.node[16].mobility 	startTime 	2.5
scalar scenarioPRJP1.node[16].mobility 	totalTime 	947.5
scalar scenarioPRJP1.node[16].mobility 	stopTime 	950
scalar scenarioPRJP1.node[16].mobility 	minSpeed 	2.4754266169008e-13
scalar scenarioPRJP1.node[16].mobility 	maxSpeed 	17.599524273276
scalar scenarioPRJP1.node[16].mobility 	totalDistance 	8865.3707487301
scalar scenarioPRJP1.node[16].mobility 	totalCO2Emission 	2502.3192481237
scalar scenarioPRJP1.node[16].wlan[0].mgmt 	dataQueueLen:max 	39
attr interpolationmode  sample-hold
attr title  "data queue length, max"
scalar scenarioPRJP1.node[16].wlan[0].mgmt 	dataQueueLen:timeavg 	0
attr interpolationmode  sample-hold
attr title  "data queue length, timeavg"
scalar scenarioPRJP1.node[16].wlan[0].mgmt 	dropPkByQueue:count 	0
attr interpolationmode  none
attr source  dropPkByQueue
attr title  "packets dropped by queue, count"
scalar scenarioPRJP1.node[16].wlan[0].mgmt 	dropPkByQueue:sum(packetBytes) 	0
attr interpolationmode  none
attr source  dropPkByQueue
attr title  "packets dropped by queue, sum(packetBytes)"
scalar scenarioPRJP1.node[16].wlan[0].mac 	"number of received packets" 	3581
scalar scenarioPRJP1.node[16].wlan[0].mac 	"number of collisions" 	1484
scalar scenarioPRJP1.node[16].wlan[0].mac 	"number of internal collisions" 	0
scalar scenarioPRJP1.node[16].wlan[0].mac 	"number of retry for AC 0" 	3777
scalar scenarioPRJP1.node[16].wlan[0].mac 	"number of retry for AC 1" 	0
scalar scenarioPRJP1.node[16].wlan[0].mac 	"number of retry for AC 2" 	0
scalar scenarioPRJP1.node[16].wlan[0].mac 	"number of retry for AC 3" 	0
scalar scenarioPRJP1.node[16].wlan[0].mac 	"sent and received bits" 	5363840
scalar scenarioPRJP1.node[16].wlan[0].mac 	"sent packet within AC 0" 	536
scalar scenarioPRJP1.node[16].wlan[0].mac 	"sent packet within AC 1" 	0
scalar scenarioPRJP1.node[16].wlan[0].mac 	"sent packet within AC 2" 	0
scalar scenarioPRJP1.node[16].wlan[0].mac 	"sent packet within AC 3" 	0
scalar scenarioPRJP1.node[16].wlan[0].mac 	"sent in TXOP " 	0
scalar scenarioPRJP1.node[16].wlan[0].mac 	"sentWithoutRetry AC 0" 	512
scalar scenarioPRJP1.node[16].wlan[0].mac 	"sentWithoutRetry AC 1" 	0
scalar scenarioPRJP1.node[16].wlan[0].mac 	"sentWithoutRetry AC 2" 	0
scalar scenarioPRJP1.node[16].wlan[0].mac 	"sentWithoutRetry AC 3" 	0
scalar scenarioPRJP1.node[16].wlan[0].mac 	"numGivenUp AC 0" 	623
scalar scenarioPRJP1.node[16].wlan[0].mac 	"numGivenUp AC 1" 	0
scalar scenarioPRJP1.node[16].wlan[0].mac 	"numGivenUp AC 2" 	0
scalar scenarioPRJP1.node[16].wlan[0].mac 	"numGivenUp AC 3" 	0
scalar scenarioPRJP1.node[16].wlan[0].mac 	"numDropped AC 0" 	13
scalar scenarioPRJP1.node[16].wlan[0].mac 	"numDropped AC 1" 	0
scalar scenarioPRJP1.node[16].wlan[0].mac 	"numDropped AC 2" 	0
scalar scenarioPRJP1.node[16].wlan[0].mac 	"numDropped AC 3" 	0
scalar scenarioPRJP1.node[16].wlan[0].mac 	rcvdPkFromLL:count 	27123
attr interpolationmode  none
attr source  packetReceivedFromLower
attr title  "packets received from lower layer, count"
scalar scenarioPRJP1.node[16].wlan[0].mac 	rcvdPkFromLL:sum(packetBytes) 	6312730
attr interpolationmode  none
attr source  packetReceivedFromLower
attr title  "packets received from lower layer, sum(packetBytes)"
scalar scenarioPRJP1.node[16].wlan[0].mac 	sentDownPk:count 	12799
attr interpolationmode  none
attr source  packetSentToLower
attr title  "packets sent to lower layer, count"
scalar scenarioPRJP1.node[16].wlan[0].mac 	sentDownPk:sum(packetBytes) 	2969806
attr interpolationmode  none
attr source  packetSentToLower
attr title  "packets sent to lower layer, sum(packetBytes)"
scalar scenarioPRJP1.node[16].wlan[0].mac 	rcvdPkFromHL:count 	5454
attr interpolationmode  none
attr source  packetReceivedFromUpper
attr title  "packets received from higher layer, count"
scalar scenarioPRJP1.node[16].wlan[0].mac 	rcvdPkFromHL:sum(packetBytes) 	993140
attr interpolationmode  none
attr source  packetReceivedFromUpper
attr title  "packets received from higher layer, sum(packetBytes)"
scalar scenarioPRJP1.node[16].wlan[0].mac 	passedUpPk:count 	8602
attr interpolationmode  none
attr source  packetSentToUpper
attr title  "packets passed to higher layer, count"
scalar scenarioPRJP1.node[16].wlan[0].mac 	passedUpPk:sum(packetBytes) 	1217612
attr interpolationmode  none
attr source  packetSentToUpper
attr title  "packets passed to higher layer, sum(packetBytes)"
statistic scenarioPRJP1.node[16].wlan[0].radio 	radioChannel:histogram
field count 1
field mean 3
field stddev -nan
field sum 3
[...]
attr source  packetSentToUpper
attr title  "packets passed to higher layer, sum(packetBytes)"
statistic scenarioPRJP1.node[12].wlan[0].radio 	radioChannel:histogram
field count 1
field mean 3
field stddev -nan
field sum 3
field sqrsum 9
field min 3
field max 3
attr interpolationmode  sample-hold
attr source  radioChannelChanged
attr title  "Radio channel, histogram"
bin	-INF	0
bin	2	0
bin	3	1
bin	4	0
scalar scenarioPRJP1.node[12].wlan[0].radio 	transmissionState:count 	54848
attr interpolationmode  sample-hold
attr source  transmissionStateChanged
attr title  "Radio transmission state, count"
scalar scenarioPRJP1.node[12].wlan[0].radio 	receptionState:count 	104946
attr interpolationmode  sample-hold
attr source  receptionStateChanged
attr title  "Radio reception state, count"
scalar scenarioPRJP1.node[12].wlan[0].radio 	radioMode:count 	27426
attr interpolationmode  sample-hold
attr source  radioModeChanged
attr title  "Radio mode, count"
statistic scenarioPRJP1.node[12].wlan[0].radio 	symbolErrorRate:histogram
field count 0
field mean -nan
field stddev -nan
field sum 0
field sqrsum 0
field min -nan
field max -nan
attr source  symbolErrorRate
attr title  "Symbol error rate, histogram"
bin	-INF	0
bin	-0.5	0
bin	-0.46666666666667	0
bin	-0.43333333333333	0
bin	-0.4	0
bin	-0.36666666666667	0
bin	-0.33333333333333	0
bin	-0.3	0
bin	-0.26666666666667	0
bin	-0.23333333333333	0
bin	-0.2	0
bin	-0.16666666666667	0
bin	-0.13333333333333	0
bin	-0.1	0
bin	-0.066666666666667	0
bin	-0.033333333333333	0
bin	0	0
bin	0.033333333333333	0
bin	0.066666666666667	0
bin	0.1	0
bin	0.13333333333333	0
bin	0.16666666666667	0
bin	0.2	0
bin	0.23333333333333	0
bin	0.26666666666667	0
bin	0.3	0
bin	0.33333333333333	0
bin	0.36666666666667	0
bin	0.4	0
bin	0.43333333333333	0
bin	0.46666666666667	0
bin	0.5	0
statistic scenarioPRJP1.node[12].wlan[0].radio 	bitErrorRate:histogram
field count 0
field mean -nan
field stddev -nan
field sum 0
field sqrsum 0
field min -nan
field max -nan
attr source  bitErrorRate
attr title  "Bit error rate, histogram"
bin	-INF	0
bin	-0.5	0
bin	-0.46666666666667	0
bin	-0.43333333333333	0
bin	-0.4	0
bin	-0.36666666666667	0
bin	-0.33333333333333	0
bin	-0.3	0
bin	-0.26666666666667	0
bin	-0.23333333333333	0
bin	-0.2	0
bin	-0.16666666666667	0
bin	-0.13333333333333	0
bin	-0.1	0
bin	-0.066666666666667	0
bin	-0.033333333333333	0
bin	0	0
bin	0.033333333333333	0
bin	0.066666666666667	0
bin	0.1	0
bin	0.13333333333333	0
bin	0.16666666666667	0
bin	0.2	0
bin	0.23333333333333	0
bin	0.26666666666667	0
bin	0.3	0
bin	0.33333333333333	0
bin	0.36666666666667	0
bin	0.4	0
bin	0.43333333333333	0
bin	0.46666666666667	0
bin	0.5	0
statistic scenarioPRJP1.node[12].wlan[0].radio 	packetErrorRate:histogram
field count 38712
field mean 0.026034019346062
field stddev 0.1530543718649
field sum 1007.8289569248
field sqrsum 933.06781751759
field min 0
field max 1
attr source  packetErrorRate
attr title  "Packet error rate, histogram"
bin	-INF	0
bin	-0.5	0
bin	-0.43333333333333	0
bin	-0.36666666666667	0
bin	-0.3	0
bin	-0.23333333333333	0
bin	-0.16666666666667	0
bin	-0.1	0
bin	-0.033333333333333	37393
bin	0.033333333333333	117
bin	0.1	71
bin	0.16666666666667	52
bin	0.23333333333333	29
bin	0.3	39
bin	0.36666666666667	5
bin	0.43333333333333	21
bin	0.5	19
bin	0.56666666666667	18
bin	0.63333333333333	11
bin	0.7	28
bin	0.76666666666667	22
bin	0.83333333333333	25
bin	0.9	61
bin	0.96666666666667	801
bin	1.0333333333333	0
bin	1.1	0
bin	1.1666666666667	0
bin	1.2333333333333	0
bin	1.3	0
bin	1.3666666666667	0
bin	1.4333333333333	0
bin	1.5	0
statistic scenarioPRJP1.node[12].wlan[0].radio 	minSNIR:histogram
field count 38712
field mean 23196.738969601
field stddev 115912.58443387
field sum 897992158.99119
field sqrsum 5.409409265148e+14
field min 0.00031673694079649
field max 753239.71923443
attr source  minSNIR
attr title  "Min SNIR, histogram"
bin	-INF	0
bin	-376616.5076142	0
bin	-326400.84808208	0
bin	-276185.18854996	0
bin	-225969.52901784	0
bin	-175753.86948572	0
bin	-125538.2099536	0
bin	-75322.550421482	0
bin	-25106.890889362	36659
bin	25108.768642758	460
bin	75324.428174879	109
bin	125540.087707	90
bin	175755.74723912	430
bin	225971.40677124	7
bin	276187.06630336	1
bin	326402.72583548	8
bin	376618.3853676	32
bin	426834.04489972	4
bin	477049.70443184	3
bin	527265.36396396	0
bin	577481.02349608	5
bin	627696.6830282	2
bin	677912.34256032	8
bin	728128.00209244	894
bin	778343.66162456	0
bin	828559.32115668	0
bin	878774.9806888	0
bin	928990.64022092	0
bin	979206.29975305	0
bin	1029421.9592852	0
bin	1079637.6188173	0
bin	1129853.2783494	0
scalar scenarioPRJP1.node[12].lo0.lo 	droppedPkBitError:count 	0
attr interpolationmode  none
attr source  dropPkBitError
attr title  "packets dropped/bit error, count"
scalar scenarioPRJP1.node[12].lo0.lo 	droppedPkBitError:sum(packetBytes) 	0
attr interpolationmode  none
attr source  dropPkBitError
attr title  "packets dropped/bit error, sum(packetBytes)"
scalar scenarioPRJP1.node[12].lo0.lo 	rcvdPkFromHL:count 	0
attr interpolationmode  none
attr source  packetReceivedFromUpper
attr title  "packets received from higher layer, count"
scalar scenarioPRJP1.node[12].lo0.lo 	rcvdPkFromHL:sum(packetBytes) 	0
attr interpolationmode  none
attr source  packetReceivedFromUpper
attr title  "packets received from higher layer, sum(packetBytes)"
scalar scenarioPRJP1.node[12].lo0.lo 	passedUpPk:count 	0
attr interpolationmode  none
attr source  packetSentToUpper
attr title  "packets passed to higher layer, count"
scalar scenarioPRJP1.node[12].lo0.lo 	passedUpPk:sum(packetBytes) 	0
attr interpolationmode  none
attr source  packetSentToUpper
attr title  "packets passed to higher layer, sum(packetBytes)"
scalar scenarioPRJP1.node[22].app 	"Total sent" 	2605
scalar scenarioPRJP1.node[22].app 	"Total received" 	135
scalar scenarioPRJP1.node[22].app 	"Total deleted" 	195
scalar scenarioPRJP1.node[22].app 	dropPk:count 	195
attr interpolationmode  none
attr source  dropPk
attr title  "packets dropped, count"
scalar scenarioPRJP1.node[22].app 	dropPk:sum(packetBytes) 	99840
attr interpolationmode  none
attr source  dropPk
attr title  "packets dropped, sum(packetBytes)"
scalar scenarioPRJP1.node[22].app 	outOfOrderPk:count 	66
attr interpolationmode  none
attr source  outOfOrderPk
attr title  "packets received out of order, count"
scalar scenarioPRJP1.node[22].app 	outOfOrderPk:sum(packetBytes) 	33792
attr interpolationmode  none
attr source  outOfOrderPk
attr title  "packets received out of order, sum(packetBytes)"
scalar scenarioPRJP1.node[22].app 	rcvdPk:count 	135
attr interpolationmode  none
attr source  rcvdPk
attr title  "packets received, count"
scalar scenarioPRJP1.node[22].app 	rcvdPk:sum(packetBytes) 	69120
attr interpolationmode  none
attr source  rcvdPk
attr title  "packets received, sum(packetBytes)"
statistic scenarioPRJP1.node[22].app 	endToEndDelay:histogram
field count 135
field mean 0.89373502884747
field stddev 3.4208583536298
field sum 120.65422889441
field sqrsum 1675.9373420717
field min 0.000945022909
field max 19.920335076584
attr interpolationmode  none
attr source  messageAge(rcvdPk)
attr title  "delay, histogram"
attr unit  s
bin	-INF	0
bin	-9.9587500039285	0
bin	-8.6307906670168	0
bin	-7.3028313301052	0
bin	-5.9748719931935	0
bin	-4.6469126562818	0
bin	-3.3189533193702	0
bin	-1.9909939824585	0
bin	-0.66303464554683	122
bin	0.66492469136483	4
bin	1.9928840282765	0
bin	3.3208433651882	1
bin	4.6488027020998	0
bin	5.9767620390115	1
bin	7.3047213759232	0
bin	8.6326807128348	0
bin	9.9606400497465	1
bin	11.288599386658	1
bin	12.61655872357	0
bin	13.944518060482	2
bin	15.272477397393	1
bin	16.600436734305	1
bin	17.928396071217	0
bin	19.256355408128	1
bin	20.58431474504	0
bin	21.912274081952	0
bin	23.240233418863	0
bin	24.568192755775	0
bin	25.896152092686	0
bin	27.224111429598	0
bin	28.55207076651	0
bin	29.880030103421	0
scalar scenarioPRJP1.node[22].app 	sentPk:count 	2605
attr interpolationmode  none
attr source  sentPk
attr title  "packets sent, count"
scalar scenarioPRJP1.node[22].app 	sentPk:sum(packetBytes) 	1333760
attr interpolationmode  none
attr source  sentPk
attr title  "packets sent, sum(packetBytes)"
scalar scenarioPRJP1.node[22].udp 	droppedPkBadChecksum:count 	0
attr interpolationmode  none
attr title  "packets dropped (checksum error), count"
scalar scenarioPRJP1.node[22].udp 	droppedPkWrongPort:count 	0
attr interpolationmode  none
attr title  "packets dropped (wrong port), count"
scalar scenarioPRJP1.node[22].udp 	passedUpPk:count 	396
attr interpolationmode  none
attr title  "packets passed up, count"
scalar scenarioPRJP1.node[22].udp 	rcvdPk:count 	396
attr interpolationmode  none
attr source  rcvdPk
attr title  "packets received, count"
scalar scenarioPRJP1.node[22].udp 	rcvdPk:sum(packetBytes) 	205920
attr interpolationmode  none
attr source  rcvdPk
attr title  "packets received, sum(packetBytes)"
scalar scenarioPRJP1.node[22].udp 	sentPk:count 	2605
attr interpolationmode  none
attr source  sentPk
attr title  "packets sent, count"
scalar scenarioPRJP1.node[22].udp 	sentPk:sum(packetBytes) 	1354600
attr interpolationmode  none
attr source  sentPk
attr title  "packets sent, sum(packetBytes)"
scalar scenarioPRJP1.node[22].networkLayer.arp 	failedARPResolution:count 	0
attr title  "ARP failed resolutions, count"
scalar scenarioPRJP1.node[22].networkLayer.arp 	completedARPResolution:count 	61
attr title  "ARP completed resolutions, count"
scalar scenarioPRJP1.node[22].networkLayer.arp 	initiatedARPResolution:count 	17
attr title  "ARP initiated resolutions, count"
scalar scenarioPRJP1.node[22].networkLayer.arp 	sentReply:count 	19
attr title  "ARP replies sent, count"
scalar scenarioPRJP1.node[22].networkLayer.arp 	sentReq:count 	19
attr title  "ARP request sent, count"
scalar scenarioPRJP1.node[22].mobility 	startTime 	2.5
scalar scenarioPRJP1.node[22].mobility 	totalTime 	947.5
scalar scenarioPRJP1.node[22].mobility 	stopTime 	950
scalar scenarioPRJP1.node[22].mobility 	minSpeed 	2.4755002718028e-13
scalar scenarioPRJP1.node[22].mobility 	maxSpeed 	17.893725375128
scalar scenarioPRJP1.node[22].mobility 	totalDistance 	10738.95422693
scalar scenarioPRJP1.node[22].mobility 	totalCO2Emission 	2745.5096581977
scalar scenarioPRJP1.node[22].wlan[0].mgmt 	dataQueueLen:max 	50
attr interpolationmode  sample-hold
attr title  "data queue length, max"
scalar scenarioPRJP1.node[22].wlan[0].mgmt 	dataQueueLen:timeavg 	0
attr interpolationmode  sample-hold
attr title  "data queue length, timeavg"
scalar scenarioPRJP1.node[22].wlan[0].mgmt 	dropPkByQueue:count 	0
attr interpolationmode  none
attr source  dropPkByQueue
attr title  "packets dropped by queue, count"
scalar scenarioPRJP1.node[22].wlan[0].mgmt 	dropPkByQueue:sum(packetBytes) 	0
attr interpolationmode  none
attr source  dropPkByQueue
attr title  "packets dropped by queue, sum(packetBytes)"
scalar scenarioPRJP1.node[22].wlan[0].mac 	"number of received packets" 	2450
scalar scenarioPRJP1.node[22].wlan[0].mac 	"number of collisions" 	821
scalar scenarioPRJP1.node[22].wlan[0].mac 	"number of internal collisions" 	0
scalar scenarioPRJP1.node[22].wlan[0].mac 	"number of retry for AC 0" 	3104
scalar scenarioPRJP1.node[22].wlan[0].mac 	"number of retry for AC 1" 	0
scalar scenarioPRJP1.node[22].wlan[0].mac 	"number of retry for AC 2" 	0
scalar scenarioPRJP1.node[22].wlan[0].mac 	"number of retry for AC 3" 	0
scalar scenarioPRJP1.node[22].wlan[0].mac 	"sent and received bits" 	3703168
scalar scenarioPRJP1.node[22].wlan[0].mac 	"sent packet within AC 0" 	290
scalar scenarioPRJP1.node[22].wlan[0].mac 	"sent packet within AC 1" 	0
scalar scenarioPRJP1.node[22].wlan[0].mac 	"sent packet within AC 2" 	0
scalar scenarioPRJP1.node[22].wlan[0].mac 	"sent packet within AC 3" 	0
scalar scenarioPRJP1.node[22].wlan[0].mac 	"sent in TXOP " 	0
scalar scenarioPRJP1.node[22].wlan[0].mac 	"sentWithoutRetry AC 0" 	280
scalar scenarioPRJP1.node[22].wlan[0].mac 	"sentWithoutRetry AC 1" 	0
scalar scenarioPRJP1.node[22].wlan[0].mac 	"sentWithoutRetry AC 2" 	0
scalar scenarioPRJP1.node[22].wlan[0].mac 	"sentWithoutRetry AC 3" 	0
scalar scenarioPRJP1.node[22].wlan[0].mac 	"numGivenUp AC 0" 	515
scalar scenarioPRJP1.node[22].wlan[0].mac 	"numGivenUp AC 1" 	0
scalar scenarioPRJP1.node[22].wlan[0].mac 	"numGivenUp AC 2" 	0
scalar scenarioPRJP1.node[22].wlan[0].mac 	"numGivenUp AC 3" 	0
scalar scenarioPRJP1.node[22].wlan[0].mac 	"numDropped AC 0" 	9
scalar scenarioPRJP1.node[22].wlan[0].mac 	"numDropped AC 1" 	0
scalar scenarioPRJP1.node[22].wlan[0].mac 	"numDropped AC 2" 	0
scalar scenarioPRJP1.node[22].wlan[0].mac 	"numDropped AC 3" 	0
scalar scenarioPRJP1.node[22].wlan[0].mac 	rcvdPkFromLL:count 	25047
attr interpolationmode  none
attr source  packetReceivedFromLower
attr title  "packets received from lower layer, count"
scalar scenarioPRJP1.node[22].wlan[0].mac 	rcvdPkFromLL:sum(packetBytes) 	5837006
attr interpolationmode  none
attr source  packetReceivedFromLower
attr title  "packets received from lower layer, sum(packetBytes)"
scalar scenarioPRJP1.node[22].wlan[0].mac 	sentDownPk:count 	9859
attr interpolationmode  none
attr source  packetSentToLower
attr title  "packets sent to lower layer, count"
scalar scenarioPRJP1.node[22].wlan[0].mac 	sentDownPk:sum(packetBytes) 	2441880
attr interpolationmode  none
attr source  packetSentToLower
attr title  "packets sent to lower layer, sum(packetBytes)"
scalar scenarioPRJP1.node[22].wlan[0].mac 	rcvdPkFromHL:count 	4314
attr interpolationmode  none
attr source  packetReceivedFromUpper
attr title  "packets received from higher layer, count"
scalar scenarioPRJP1.node[22].wlan[0].mac 	rcvdPkFromHL:sum(packetBytes) 	741296
attr interpolationmode  none
attr source  packetReceivedFromUpper
attr title  "packets received from higher layer, sum(packetBytes)"
scalar scenarioPRJP1.node[22].wlan[0].mac 	passedUpPk:count 	7727
attr interpolationmode  none
attr source  packetSentToUpper
attr title  "packets passed to higher layer, count"
scalar scenarioPRJP1.node[22].wlan[0].mac 	passedUpPk:sum(packetBytes) 	965816
attr interpolationmode  none
attr source  packetSentToUpper
attr title  "packets passed to higher layer, sum(packetBytes)"
statistic scenarioPRJP1.node[22].wlan[0].radio 	radioChannel:histogram
field count 1
field mean 3
field stddev -nan
field sum 3
field sqrsum 9
field min 3
field max 3
attr interpolationmode  sample-hold
attr source  radioChannelChanged
attr title  "Radio channel, histogram"
bin	-INF	0
bin	2	0
bin	3	1
bin	4	0
scalar scenarioPRJP1.node[22].wlan[0].radio 	transmissionState:count 	39436
attr interpolationmode  sample-hold
attr source  transmissionStateChanged
attr title  "Radio transmission state, count"
scalar scenarioPRJP1.node[22].wlan[0].radio 	receptionState:count 	69883
attr interpolationmode  sample-hold
attr source  receptionStateChanged
attr title  "Radio reception state, count"
scalar scenarioPRJP1.node[22].wlan[0].radio 	radioMode:count 	19720
attr interpolationmode  sample-hold
attr source  radioModeChanged
attr title  "Radio mode, count"
statistic scenarioPRJP1.node[22].wlan[0].radio 	symbolErrorRate:histogram
field count 0
field mean -nan
field stddev -nan
field sum 0
field sqrsum 0
field min -nan
field max -nan
attr source  symbolErrorRate
attr title  "Symbol error rate, histogram"
bin	-INF	0
bin	-0.5	0
bin	-0.46666666666667	0
bin	-0.43333333333333	0
bin	-0.4	0
bin	-0.36666666666667	0
bin	-0.33333333333333	0
bin	-0.3	0
bin	-0.26666666666667	0
bin	-0.23333333333333	0
bin	-0.2	0
bin	-0.16666666666667	0
bin	-0.13333333333333	0
bin	-0.1	0
bin	-0.066666666666667	0
bin	-0.033333333333333	0
bin	0	0
bin	0.033333333333333	0
bin	0.066666666666667	0
bin	0.1	0
bin	0.13333333333333	0
bin	0.16666666666667	0
bin	0.2	0
bin	0.23333333333333	0
bin	0.26666666666667	0
bin	0.3	0
bin	0.33333333333333	0
bin	0.36666666666667	0
bin	0.4	0
bin	0.43333333333333	0
bin	0.46666666666667	0
bin	0.5	0
statistic scenarioPRJP1.node[22].wlan[0].radio 	bitErrorRate:histogram
field count 0
field mean -nan
field stddev -nan
field sum 0
field sqrsum 0
field min -nan
field max -nan
attr source  bitErrorRate
attr title  "Bit error rate, histogram"
bin	-INF	0
bin	-0.5	0
bin	-0.46666666666667	0
bin	-0.43333333333333	0
bin	-0.4	0
bin	-0.36666666666667	0
bin	-0.33333333333333	0
bin	-0.3	0
bin	-0.26666666666667	0
bin	-0.23333333333333	0
bin	-0.2	0
bin	-0.16666666666667	0
bin	-0.13333333333333	0
bin	-0.1	0
bin	-0.066666666666667	0
bin	-0.033333333333333	0
bin	0	0
bin	0.033333333333333	0
bin	0.066666666666667	0
bin	0.1	0
bin	0.13333333333333	0
bin	0.16666666666667	0
bin	0.2	0
bin	0.23333333333333	0
bin	0.26666666666667	0
bin	0.3	0
bin	0.33333333333333	0
bin	0.36666666666667	0
bin	0.4	0
bin	0.43333333333333	0
bin	0.46666666666667	0
bin	0.5	0
statistic scenarioPRJP1.node[22].wlan[0].radio 	packetErrorRate:histogram
field count 25047
field mean 0.030086344666836
field stddev 0.16702080364452
field sum 753.57267487025
field sqrsum 721.3541821263
field min 0
field max 1
attr source  packetErrorRate
attr title  "Packet error rate, histogram"
bin	-INF	0
bin	-0.00011530554525913	0
bin	-9.9931472557909e-05	0
bin	-8.4557399856692e-05	0
bin	-6.9183327155475e-05	0
bin	-5.3809254454259e-05	0
bin	-3.8435181753042e-05	0
bin	-2.3061109051825e-05	0
bin	-7.6870363506084e-06	23630
bin	7.6870363506084e-06	47
bin	2.3061109051825e-05	32
bin	3.8435181753042e-05	17
bin	5.3809254454259e-05	7
bin	6.9183327155475e-05	7
bin	8.4557399856692e-05	19
bin	9.9931472557909e-05	22
bin	0.00011530554525913	14
bin	0.00013067961796034	4
bin	0.00014605369066156	12
bin	0.00016142776336278	13
bin	0.00017680183606399	8
bin	0.00019217590876521	9
bin	0.00020754998146643	3
bin	0.00022292405416764	3
bin	0.00023829812686886	2
bin	0.00025367219957008	4
bin	0.00026904627227129	1
bin	0.00028442034497251	4
bin	0.00029979441767373	0
bin	0.00031516849037494	1
bin	0.00033054256307616	7
bin	0.00034591663577738	1181
statistic scenarioPRJP1.node[22].wlan[0].radio 	minSNIR:histogram
field count 25047
field mean 19451.014401149
field stddev 95774.326123201
field sum 487189557.70557
field sqrsum 2.3921631490289e+14
field min 0.00071236909590079
field max 2489544.7942069
attr source  minSNIR
attr title  "Min SNIR, histogram"
bin	-INF	0
bin	-376580.98324735	0
bin	-326369.78006533	0
bin	-276158.57688331	0
bin	-225947.37370128	0
bin	-175736.17051926	0
bin	-125524.96733723	0
bin	-75313.764155209	0
bin	-25102.560973185	22821
bin	25108.642208839	1130
bin	75319.845390863	262
bin	125531.04857289	144
bin	175742.25175491	213
bin	225953.45493694	13
bin	276164.65811896	6
bin	326375.86130098	57
bin	376587.06448301	27
bin	426798.26766503	3
bin	477009.47084706	5
bin	527220.67402908	7
bin	577431.87721111	7
bin	627643.08039313	4
bin	677854.28357515	11
bin	728065.48675718	336
bin	778276.6899392	0
bin	828487.89312123	0
bin	878699.09630325	0
bin	928910.29948528	0
bin	979121.5026673	0
bin	1029332.7058493	0
bin	1079543.9090313	0
bin	1129755.1122134	1
scalar scenarioPRJP1.node[22].lo0.lo 	droppedPkBitError:count 	0
attr interpolationmode  none
attr source  dropPkBitError
attr title  "packets dropped/bit error, count"
scalar scenarioPRJP1.node[22].lo0.lo 	droppedPkBitError:sum(packetBytes) 	0
attr interpolationmode  none
attr source  dropPkBitError
attr title  "packets dropped/bit error, sum(packetBytes)"
scalar scenarioPRJP1.node[22].lo0.lo 	rcvdPkFromHL:count 	0
attr interpolationmode  none
attr source  packetReceivedFromUpper
attr title  "packets received from higher layer, count"
scalar scenarioPRJP1.node[22].lo0.lo 	rcvdPkFromHL:sum(packetBytes) 	0
attr interpolationmode  none
attr source  packetReceivedFromUpper
attr title  "packets received from higher layer, sum(packetBytes)"
scalar scenarioPRJP1.node[22].lo0.lo 	passedUpPk:count 	0
attr interpolationmode  none
attr source  packetSentToUpper
attr title  "packets passed to higher layer, count"
scalar scenarioPRJP1.node[22].lo0.lo 	passedUpPk:sum(packetBytes) 	0
attr interpolationmode  none
attr source  packetSentToUpper
attr title  "packets passed to higher layer, sum(packetBytes)"
