version 2
run OLSR-ETX-FS-75n-0-20150615-21:06:24-3358
attr configname OLSR-ETX-FS-75n
attr datetime 20150615-21:06:24
attr experiment OLSR-ETX-FS-75n
attr inifile omnetpp.ini
attr iterationvars ""
attr iterationvars2 $repetition=0
attr measurement ""
attr network Prj_Part1_propag.scenarioPRJP1
attr processid 3358
attr repetition 0
attr replication #0
attr resultdir results
attr runnumber 0
attr seedset 0

scalar scenarioPRJP1.node[72].app 	"Total sent" 	4608
scalar scenarioPRJP1.node[72].app 	"Total received" 	381
scalar scenarioPRJP1.node[72].app 	"Total deleted" 	0
scalar scenarioPRJP1.node[72].app 	dropPk:count 	0
attr interpolationmode  none
attr source  dropPk
attr title  "packets dropped, count"
scalar scenarioPRJP1.node[72].app 	dropPk:sum(packetBytes) 	0
attr interpolationmode  none
attr source  dropPk
attr title  "packets dropped, sum(packetBytes)"
scalar scenarioPRJP1.node[72].app 	outOfOrderPk:count 	0
attr interpolationmode  none
attr source  outOfOrderPk
attr title  "packets received out of order, count"
scalar scenarioPRJP1.node[72].app 	outOfOrderPk:sum(packetBytes) 	0
attr interpolationmode  none
attr source  outOfOrderPk
attr title  "packets received out of order, sum(packetBytes)"
scalar scenarioPRJP1.node[72].app 	rcvdPk:count 	381
attr interpolationmode  none
attr source  rcvdPk
attr title  "packets received, count"
scalar scenarioPRJP1.node[72].app 	rcvdPk:sum(packetBytes) 	195072
attr interpolationmode  none
attr source  rcvdPk
attr title  "packets received, sum(packetBytes)"
statistic scenarioPRJP1.node[72].app 	endToEndDelay:histogram
field count 381
field mean 0.11468268797674
field stddev 0.36245661092134
field sum 43.694104119139
field sqrsum 54.933379333339
field min 0.000891048943
field max 3.11329118206
attr interpolationmode  none
attr source  messageAge(rcvdPk)
attr title  "delay, histogram"
attr unit  s
bin	-INF	0
bin	-1.0006392053715	0
bin	-0.86710183678477	0
bin	-0.73356446819803	0
bin	-0.6000270996113	0
bin	-0.46648973102457	0
bin	-0.33295236243783	0
bin	-0.1994149938511	0
bin	-0.065877625264367	333
bin	0.067659743322367	15
bin	0.2011971119091	3
bin	0.33473448049583	0
bin	0.46827184908257	2
bin	0.6018092176693	0
bin	0.73534658625603	2
bin	0.86888395484277	2
bin	1.0024213234295	15
bin	1.1359586920162	0
bin	1.269496060603	1
bin	1.4030334291897	3
bin	1.5365707977764	0
bin	1.6701081663632	0
bin	1.8036455349499	0
bin	1.9371829035366	4
bin	2.0707202721234	0
bin	2.2042576407101	0
bin	2.3377950092968	0
bin	2.4713323778836	0
bin	2.6048697464703	0
bin	2.738407115057	0
bin	2.8719444836438	0
bin	3.0054818522305	1
scalar scenarioPRJP1.node[72].app 	sentPk:count 	4608
attr interpolationmode  none
attr source  sentPk
attr title  "packets sent, count"
scalar scenarioPRJP1.node[72].app 	sentPk:sum(packetBytes) 	2359296
attr interpolationmode  none
attr source  sentPk
attr title  "packets sent, sum(packetBytes)"
scalar scenarioPRJP1.node[72].udp 	droppedPkBadChecksum:count 	0
attr interpolationmode  none
attr title  "packets dropped (checksum error), count"
scalar scenarioPRJP1.node[72].udp 	droppedPkWrongPort:count 	0
attr interpolationmode  none
attr title  "packets dropped (wrong port), count"
scalar scenarioPRJP1.node[72].udp 	passedUpPk:count 	381
attr interpolationmode  none
attr title  "packets passed up, count"
scalar scenarioPRJP1.node[72].udp 	rcvdPk:count 	381
attr interpolationmode  none
attr source  rcvdPk
attr title  "packets received, count"
scalar scenarioPRJP1.node[72].udp 	rcvdPk:sum(packetBytes) 	198120
attr interpolationmode  none
attr source  rcvdPk
attr title  "packets received, sum(packetBytes)"
scalar scenarioPRJP1.node[72].udp 	sentPk:count 	4608
attr interpolationmode  none
attr source  sentPk
attr title  "packets sent, count"
scalar scenarioPRJP1.node[72].udp 	sentPk:sum(packetBytes) 	2396160
attr interpolationmode  none
attr source  sentPk
attr title  "packets sent, sum(packetBytes)"
scalar scenarioPRJP1.node[72].networkLayer.arp 	failedARPResolution:count 	16
attr title  "ARP failed resolutions, count"
scalar scenarioPRJP1.node[72].networkLayer.arp 	completedARPResolution:count 	862
attr title  "ARP completed resolutions, count"
scalar scenarioPRJP1.node[72].networkLayer.arp 	initiatedARPResolution:count 	122
attr title  "ARP initiated resolutions, count"
scalar scenarioPRJP1.node[72].networkLayer.arp 	sentReply:count 	86
attr title  "ARP replies sent, count"
scalar scenarioPRJP1.node[72].networkLayer.arp 	sentReq:count 	187
attr title  "ARP request sent, count"
scalar scenarioPRJP1.node[72].mobility 	startTime 	7.4
scalar scenarioPRJP1.node[72].mobility 	totalTime 	1650.5
scalar scenarioPRJP1.node[72].mobility 	stopTime 	1658
scalar scenarioPRJP1.node[72].mobility 	minSpeed 	2.4755785039481e-13
scalar scenarioPRJP1.node[72].mobility 	maxSpeed 	17.475000500237
scalar scenarioPRJP1.node[72].mobility 	totalDistance 	18207.075091293
scalar scenarioPRJP1.node[72].mobility 	totalCO2Emission 	4524.0839587603
scalar scenarioPRJP1.node[72].wlan.mgmt 	dataQueueLen:max 	3
attr interpolationmode  sample-hold
attr title  "data queue length, max"
scalar scenarioPRJP1.node[72].wlan.mgmt 	dataQueueLen:timeavg 	0
attr interpolationmode  sample-hold
attr title  "data queue length, timeavg"
scalar scenarioPRJP1.node[72].wlan.mgmt 	dropPkByQueue:count 	0
attr interpolationmode  none
attr source  dropPkByQueue
attr title  "packets dropped by queue, count"
scalar scenarioPRJP1.node[72].wlan.mgmt 	dropPkByQueue:sum(packetBytes) 	0
attr interpolationmode  none
attr source  dropPkByQueue
attr title  "packets dropped by queue, sum(packetBytes)"
scalar scenarioPRJP1.node[72].wlan.mac 	"number of received packets" 	2426
scalar scenarioPRJP1.node[72].wlan.mac 	"number of collisions" 	21036
scalar scenarioPRJP1.node[72].wlan.mac 	"number of internal collisions" 	1
scalar scenarioPRJP1.node[72].wlan.mac 	"number of retry for AC 0" 	5680
scalar scenarioPRJP1.node[72].wlan.mac 	"number of retry for AC 1" 	66
scalar scenarioPRJP1.node[72].wlan.mac 	"number of retry for AC 2" 	0
scalar scenarioPRJP1.node[72].wlan.mac 	"number of retry for AC 3" 	0
scalar scenarioPRJP1.node[72].wlan.mac 	"sent and received bits" 	64270048
scalar scenarioPRJP1.node[72].wlan.mac 	"sent packet within AC 0" 	2298
scalar scenarioPRJP1.node[72].wlan.mac 	"sent packet within AC 1" 	119
scalar scenarioPRJP1.node[72].wlan.mac 	"sent packet within AC 2" 	0
scalar scenarioPRJP1.node[72].wlan.mac 	"sent packet within AC 3" 	0
scalar scenarioPRJP1.node[72].wlan.mac 	"sent in TXOP " 	0
scalar scenarioPRJP1.node[72].wlan.mac 	"sentWithoutRetry AC 0" 	1822
scalar scenarioPRJP1.node[72].wlan.mac 	"sentWithoutRetry AC 1" 	105
scalar scenarioPRJP1.node[72].wlan.mac 	"sentWithoutRetry AC 2" 	0
scalar scenarioPRJP1.node[72].wlan.mac 	"sentWithoutRetry AC 3" 	0
scalar scenarioPRJP1.node[72].wlan.mac 	"numGivenUp AC 0" 	687
scalar scenarioPRJP1.node[72].wlan.mac 	"numGivenUp AC 1" 	6
scalar scenarioPRJP1.node[72].wlan.mac 	"numGivenUp AC 2" 	0
scalar scenarioPRJP1.node[72].wlan.mac 	"numGivenUp AC 3" 	0
scalar scenarioPRJP1.node[72].wlan.mac 	"numDropped AC 0" 	0
scalar scenarioPRJP1.node[72].wlan.mac 	"numDropped AC 1" 	0
scalar scenarioPRJP1.node[72].wlan.mac 	"numDropped AC 2" 	0
scalar scenarioPRJP1.node[72].wlan.mac 	"numDropped AC 3" 	0
scalar scenarioPRJP1.node[72].wlan.mac 	rcvdPkFromLL:count 	90656
attr interpolationmode  none
attr source  packetReceivedFromLower
attr title  "packets received from lower layer, count"
scalar scenarioPRJP1.node[72].wlan.mac 	rcvdPkFromLL:sum(packetBytes) 	58792536
attr interpolationmode  none
attr source  packetReceivedFromLower
attr title  "packets received from lower layer, sum(packetBytes)"
scalar scenarioPRJP1.node[72].wlan.mac 	sentDownPk:count 	17936
attr interpolationmode  none
attr source  packetSentToLower
attr title  "packets sent to lower layer, count"
scalar scenarioPRJP1.node[72].wlan.mac 	sentDownPk:sum(packetBytes) 	11673576
attr interpolationmode  none
attr source  packetSentToLower
attr title  "packets sent to lower layer, sum(packetBytes)"
scalar scenarioPRJP1.node[72].wlan.mac 	rcvdPkFromHL:count 	9765
attr interpolationmode  none
attr source  packetReceivedFromUpper
attr title  "packets received from higher layer, count"
scalar scenarioPRJP1.node[72].wlan.mac 	rcvdPkFromHL:sum(packetBytes) 	8427972
attr interpolationmode  none
attr source  packetReceivedFromUpper
attr title  "packets received from higher layer, sum(packetBytes)"
scalar scenarioPRJP1.node[72].wlan.mac 	passedUpPk:count 	32062
attr interpolationmode  none
attr source  packetSentToUpper
attr title  "packets passed to higher layer, count"
scalar scenarioPRJP1.node[72].wlan.mac 	passedUpPk:sum(packetBytes) 	31294048
attr interpolationmode  none
attr source  packetSentToUpper
attr title  "packets passed to higher layer, sum(packetBytes)"
statistic scenarioPRJP1.node[72].wlan.radio 	radioChannel:histogram
field count 1
field mean 3
field stddev -nan
field sum 3
field sqrsum 9
field min 3
field max 3
attr interpolationmode  sample-hold
attr source  radioChannelChanged
attr title  "Radio channel, histogram"
bin	-INF	0
bin	2	0
bin	3	1
bin	4	0
scalar scenarioPRJP1.node[72].wlan.radio 	transmissionState:count 	71744
attr interpolationmode  sample-hold
attr source  transmissionStateChanged
attr title  "Radio transmission state, count"
scalar scenarioPRJP1.node[72].wlan.radio 	receptionState:count 	430471
attr interpolationmode  sample-hold
attr source  receptionStateChanged
attr title  "Radio reception state, count"
scalar scenarioPRJP1.node[72].wlan.radio 	radioMode:count 	35874
attr interpolationmode  sample-hold
attr source  radioModeChanged
attr title  "Radio mode, count"
statistic scenarioPRJP1.node[72].wlan.radio 	symbolErrorRate:histogram
field count 0
field mean -nan
field stddev -nan
field sum 0
field sqrsum 0
field min -nan
field max -nan
attr source  symbolErrorRate
attr title  "Symbol error rate, histogram"
bin	-INF	0
bin	-0.5	0
bin	-0.46666666666667	0
bin	-0.43333333333333	0
bin	-0.4	0
bin	-0.36666666666667	0
bin	-0.33333333333333	0
bin	-0.3	0
bin	-0.26666666666667	0
bin	-0.23333333333333	0
bin	-0.2	0
bin	-0.16666666666667	0
bin	-0.13333333333333	0
bin	-0.1	0
bin	-0.066666666666667	0
bin	-0.033333333333333	0
bin	0	0
bin	0.033333333333333	0
bin	0.066666666666667	0
bin	0.1	0
bin	0.13333333333333	0
bin	0.16666666666667	0
bin	0.2	0
bin	0.23333333333333	0
bin	0.26666666666667	0
bin	0.3	0
bin	0.33333333333333	0
bin	0.36666666666667	0
bin	0.4	0
bin	0.43333333333333	0
bin	0.46666666666667	0
bin	0.5	0
statistic scenarioPRJP1.node[72].wlan.radio 	bitErrorRate:histogram
field count 0
field mean -nan
field stddev -nan
field sum 0
field sqrsum 0
field min -nan
field max -nan
attr source  bitErrorRate
attr title  "Bit error rate, histogram"
bin	-INF	0
bin	-0.5	0
bin	-0.46666666666667	0
bin	-0.43333333333333	0
bin	-0.4	0
bin	-0.36666666666667	0
bin	-0.33333333333333	0
bin	-0.3	0
bin	-0.26666666666667	0
bin	-0.23333333333333	0
bin	-0.2	0
bin	-0.16666666666667	0
bin	-0.13333333333333	0
bin	-0.1	0
bin	-0.066666666666667	0
bin	-0.033333333333333	0
bin	0	0
bin	0.033333333333333	0
bin	0.066666666666667	0
bin	0.1	0
bin	0.13333333333333	0
bin	0.16666666666667	0
bin	0.2	0
bin	0.23333333333333	0
bin	0.26666666666667	0
bin	0.3	0
bin	0.33333333333333	0
bin	0.36666666666667	0
bin	0.4	0
bin	0.43333333333333	0
bin	0.46666666666667	0
bin	0.5	0
statistic scenarioPRJP1.node[72].wlan.radio 	packetErrorRate:histogram
field count 90656
field mean 0.21973420821007
field stddev 0.40484763548771
field sum 19920.224379492
field sqrsum 19235.655001008
field min 0
field max 1
attr source  packetErrorRate
attr title  "Packet error rate, histogram"
bin	-INF	0
bin	-1	0
bin	0	74729
bin	1	15927
bin	2	0
statistic scenarioPRJP1.node[72].wlan.radio 	minSNIR:histogram
field count 90656
field mean 16798.309222356
field stddev 182457.69219222
field sum 1522867520.8619
field sqrsum 3.0435599293135e+15
field min 0.0002103000951961
field max 3012958.8769377
attr source  minSNIR
attr title  "Min SNIR, histogram"
bin	-INF	0
bin	-72399.46842265	0
bin	-62746.176023846	0
bin	-53092.883625042	0
bin	-43439.591226238	0
bin	-33786.298827434	0
bin	-24133.00642863	0
bin	-14479.714029826	0
bin	-4826.4216310216	83901
bin	4826.8707677824	2569
bin	14480.163166586	790
bin	24133.45556539	472
bin	33786.747964195	347
bin	43440.040362999	233
bin	53093.332761803	184
bin	62746.625160607	155
bin	72399.917559411	187
bin	82053.209958215	204
bin	91706.502357019	132
bin	101359.79475582	62
bin	111013.08715463	63
bin	120666.37955343	104
bin	130319.67195223	65
bin	139972.96435104	51
bin	149626.25674984	75
bin	159279.54914865	42
bin	168932.84154745	62
bin	178586.13394625	32
bin	188239.42634506	11
bin	197892.71874386	26
bin	207546.01114267	12
bin	217199.30354147	877
scalar scenarioPRJP1.node[72].lo0.lo 	droppedPkBitError:count 	0
attr interpolationmode  none
attr source  dropPkBitError
attr title  "packets dropped/bit error, count"
scalar scenarioPRJP1.node[72].lo0.lo 	droppedPkBitError:sum(packetBytes) 	0
attr interpolationmode  none
attr source  dropPkBitError
attr title  "packets dropped/bit error, sum(packetBytes)"
scalar scenarioPRJP1.node[72].lo0.lo 	rcvdPkFromHL:count 	18
attr interpolationmode  none
attr source  packetReceivedFromUpper
attr title  "packets received from higher layer, count"
scalar scenarioPRJP1.node[72].lo0.lo 	rcvdPkFromHL:sum(packetBytes) 	1008
attr interpolationmode  none
attr source  packetReceivedFromUpper
attr title  "packets received from higher layer, sum(packetBytes)"
scalar scenarioPRJP1.node[72].lo0.lo 	passedUpPk:count 	18
attr interpolationmode  none
attr source  packetSentToUpper
attr title  "packets passed to higher layer, count"
scalar scenarioPRJP1.node[72].lo0.lo 	passedUpPk:sum(packetBytes) 	1008
attr interpolationmode  none
attr source  packetSentToUpper
attr title  "packets passed to higher layer, sum(packetBytes)"
scalar scenarioPRJP1.node[3].app 	"Total sent" 	4849
scalar scenarioPRJP1.node[3].app 	"Total received" 	423
scalar scenarioPRJP1.node[3].app 	"Total deleted" 	0
scalar scenarioPRJP1.node[3].app 	dropPk:count 	0
attr interpolationmode  none
attr source  dropPk
attr title  "packets dropped, count"
scalar scenarioPRJP1.node[3].app 	dropPk:sum(packetBytes) 	0
attr interpolationmode  none
attr source  dropPk
attr title  "packets dropped, sum(packetBytes)"
scalar scenarioPRJP1.node[3].app 	outOfOrderPk:count 	0
attr interpolationmode  none
attr source  outOfOrderPk
attr title  "packets received out of order, count"
scalar scenarioPRJP1.node[3].app 	outOfOrderPk:sum(packetBytes) 	0
attr interpolationmode  none
attr source  outOfOrderPk
attr title  "packets received out of order, sum(packetBytes)"
scalar scenarioPRJP1.node[3].app 	rcvdPk:count 	423
attr interpolationmode  none
attr source  rcvdPk
attr title  "packets received, count"
scalar scenarioPRJP1.node[3].app 	rcvdPk:sum(packetBytes) 	216576
attr interpolationmode  none
attr source  rcvdPk
attr title  "packets received, sum(packetBytes)"
statistic scenarioPRJP1.node[3].app 	endToEndDelay:histogram
field count 423
field mean 0.10474776483557
field stddev 0.32472433983703
field sum 44.308304525444
field sqrsum 49.13936434715
field min 0.000891011009
field max 2.254895153837
attr interpolationmode  none
attr source  messageAge(rcvdPk)
attr title  "delay, histogram"
attr unit  s
bin	-INF	0
bin	-0.805705796892	0
bin	-0.6981595105752	0
bin	-0.5906132242584	0
bin	-0.4830669379416	0
bin	-0.3755206516248	0
bin	-0.267974365308	0
bin	-0.1604280789912	0
bin	-0.0528817926744	347
bin	0.0546644936424	42
bin	0.1622107799592	2
bin	0.269757066276	3
bin	0.3773033525928	0
bin	0.4848496389096	1
bin	0.5923959252264	1
bin	0.6999422115432	4
bin	0.80748849786	0
bin	0.9150347841768	9
bin	1.0225810704936	6
bin	1.1301273568104	0
bin	1.2376736431272	0
bin	1.345219929444	0
bin	1.4527662157608	1
bin	1.5603125020776	1
bin	1.6678587883944	0
bin	1.7754050747112	1
bin	1.882951361028	0
bin	1.9904976473448	4
bin	2.0980439336616	0
bin	2.2055902199784	1
bin	2.3131365062952	0
bin	2.420682792612	0
scalar scenarioPRJP1.node[3].app 	sentPk:count 	4849
attr interpolationmode  none
attr source  sentPk
attr title  "packets sent, count"
scalar scenarioPRJP1.node[3].app 	sentPk:sum(packetBytes) 	2482688
attr interpolationmode  none
attr source  sentPk
attr title  "packets sent, sum(packetBytes)"
scalar scenarioPRJP1.node[3].udp 	droppedPkBadChecksum:count 	0
attr interpolationmode  none
attr title  "packets dropped (checksum error), count"
scalar scenarioPRJP1.node[3].udp 	droppedPkWrongPort:count 	0
attr interpolationmode  none
attr title  "packets dropped (wrong port), count"
scalar scenarioPRJP1.node[3].udp 	passedUpPk:count 	423
attr interpolationmode  none
attr title  "packets passed up, count"
scalar scenarioPRJP1.node[3].udp 	rcvdPk:count 	423
attr interpolationmode  none
attr source  rcvdPk
attr title  "packets received, count"
scalar scenarioPRJP1.node[3].udp 	rcvdPk:sum(packetBytes) 	219960
attr interpolationmode  none
attr source  rcvdPk
attr title  "packets received, sum(packetBytes)"
scalar scenarioPRJP1.node[3].udp 	sentPk:count 	4849
attr interpolationmode  none
attr source  sentPk
attr title  "packets sent, count"
scalar scenarioPRJP1.node[3].udp 	sentPk:sum(packetBytes) 	2521480
attr interpolationmode  none
attr source  sentPk
attr title  "packets sent, sum(packetBytes)"
scalar scenarioPRJP1.node[3].networkLayer.arp 	failedARPResolution:count 	17
attr title  "ARP failed resolutions, count"
scalar scenarioPRJP1.node[3].networkLayer.arp 	completedARPResolution:count 	1091
attr title  "ARP completed resolutions, count"
scalar scenarioPRJP1.node[3].networkLayer.arp 	initiatedARPResolution:count 	117
attr title  "ARP initiated resolutions, count"
scalar scenarioPRJP1.node[3].networkLayer.arp 	sentReply:count 	98
attr title  "ARP replies sent, count"
scalar scenarioPRJP1.node[3].networkLayer.arp 	sentReq:count 	192
attr title  "ARP request sent, count"
scalar scenarioPRJP1.node[3].mobility 	startTime 	0.1
scalar scenarioPRJP1.node[3].mobility 	totalTime 	1743.8
scalar scenarioPRJP1.node[3].mobility 	stopTime 	1744
scalar scenarioPRJP1.node[3].mobility 	minSpeed 	2.4754761596531e-13
scalar scenarioPRJP1.node[3].mobility 	maxSpeed 	19.360110481312
scalar scenarioPRJP1.node[3].mobility 	totalDistance 	18980.338718827
scalar scenarioPRJP1.node[3].mobility 	totalCO2Emission 	5111.506797222
scalar scenarioPRJP1.node[3].wlan.mgmt 	dataQueueLen:max 	2
attr interpolationmode  sample-hold
attr title  "data queue length, max"
scalar scenarioPRJP1.node[3].wlan.mgmt 	dataQueueLen:timeavg 	0
attr interpolationmode  sample-hold
attr title  "data queue length, timeavg"
scalar scenarioPRJP1.node[3].wlan.mgmt 	dropPkByQueue:count 	0
attr interpolationmode  none
attr source  dropPkByQueue
attr title  "packets dropped by queue, count"
scalar scenarioPRJP1.node[3].wlan.mgmt 	dropPkByQueue:sum(packetBytes) 	0
attr interpolationmode  none
attr source  dropPkByQueue
attr title  "packets dropped by queue, sum(packetBytes)"
scalar scenarioPRJP1.node[3].wlan.mac 	"number of received packets" 	2725
scalar scenarioPRJP1.node[3].wlan.mac 	"number of collisions" 	26134
scalar scenarioPRJP1.node[3].wlan.mac 	"number of internal collisions" 	3
scalar scenarioPRJP1.node[3].wlan.mac 	"number of retry for AC 0" 	6659
scalar scenarioPRJP1.node[3].wlan.mac 	"number of retry for AC 1" 	64
scalar scenarioPRJP1.node[3].wlan.mac 	"number of retry for AC 2" 	0
scalar scenarioPRJP1.node[3].wlan.mac 	"number of retry for AC 3" 	0
scalar scenarioPRJP1.node[3].wlan.mac 	"sent and received bits" 	69811744
scalar scenarioPRJP1.node[3].wlan.mac 	"sent packet within AC 0" 	2513
scalar scenarioPRJP1.node[3].wlan.mac 	"sent packet within AC 1" 	112
scalar scenarioPRJP1.node[3].wlan.mac 	"sent packet within AC 2" 	0
scalar scenarioPRJP1.node[3].wlan.mac 	"sent packet within AC 3" 	0
scalar scenarioPRJP1.node[3].wlan.mac 	"sent in TXOP " 	0
scalar scenarioPRJP1.node[3].wlan.mac 	"sentWithoutRetry AC 0" 	2050
scalar scenarioPRJP1.node[3].wlan.mac 	"sentWithoutRetry AC 1" 	103
scalar scenarioPRJP1.node[3].wlan.mac 	"sentWithoutRetry AC 2" 	0
scalar scenarioPRJP1.node[3].wlan.mac 	"sentWithoutRetry AC 3" 	0
scalar scenarioPRJP1.node[3].wlan.mac 	"numGivenUp AC 0" 	865
scalar scenarioPRJP1.node[3].wlan.mac 	"numGivenUp AC 1" 	7
scalar scenarioPRJP1.node[3].wlan.mac 	"numGivenUp AC 2" 	0
scalar scenarioPRJP1.node[3].wlan.mac 	"numGivenUp AC 3" 	0
scalar scenarioPRJP1.node[3].wlan.mac 	"numDropped AC 0" 	0
scalar scenarioPRJP1.node[3].wlan.mac 	"numDropped AC 1" 	0
scalar scenarioPRJP1.node[3].wlan.mac 	"numDropped AC 2" 	0
scalar scenarioPRJP1.node[3].wlan.mac 	"numDropped AC 3" 	0
scalar scenarioPRJP1.node[3].wlan.mac 	rcvdPkFromLL:count 	108551
attr interpolationmode  none
attr source  packetReceivedFromLower
attr title  "packets received from lower layer, count"
scalar scenarioPRJP1.node[3].wlan.mac 	rcvdPkFromLL:sum(packetBytes) 	69281248
attr interpolationmode  none
attr source  packetReceivedFromLower
attr title  "packets received from lower layer, sum(packetBytes)"
scalar scenarioPRJP1.node[3].wlan.mac 	sentDownPk:count 	20202
attr interpolationmode  none
attr source  packetSentToLower
attr title  "packets sent to lower layer, count"
scalar scenarioPRJP1.node[3].wlan.mac 	sentDownPk:sum(packetBytes) 	13042318
attr interpolationmode  none
attr source  packetSentToLower
attr title  "packets sent to lower layer, sum(packetBytes)"
scalar scenarioPRJP1.node[3].wlan.mac 	rcvdPkFromHL:count 	10757
attr interpolationmode  none
attr source  packetReceivedFromUpper
attr title  "packets received from higher layer, count"
scalar scenarioPRJP1.node[3].wlan.mac 	rcvdPkFromHL:sum(packetBytes) 	9221768
attr interpolationmode  none
attr source  packetReceivedFromUpper
attr title  "packets received from higher layer, sum(packetBytes)"
scalar scenarioPRJP1.node[3].wlan.mac 	passedUpPk:count 	36689
attr interpolationmode  none
attr source  packetSentToUpper
attr title  "packets passed to higher layer, count"
scalar scenarioPRJP1.node[3].wlan.mac 	passedUpPk:sum(packetBytes) 	35582644
attr interpolationmode  none
attr source  packetSentToUpper
attr title  "packets passed to higher layer, sum(packetBytes)"
statistic scenarioPRJP1.node[3].wlan.radio 	radioChannel:histogram
field count 1
field mean 3
field stddev -nan
field sum 3
field sqrsum 9
field min 3
field max 3
attr interpolationmode  sample-hold
attr source  radioChannelChanged
attr title  "Radio channel, histogram"
bin	-INF	0
bin	2	0
bin	3	1
bin	4	0
scalar scenarioPRJP1.node[3].wlan.radio 	transmissionState:count 	80808
attr interpolationmode  sample-hold
attr source  transmissionStateChanged
attr title  "Radio transmission state, count"
scalar scenarioPRJP1.node[3].wlan.radio 	receptionState:count 	498294
attr interpolationmode  sample-hold
attr source  receptionStateChanged
attr title  "Radio reception state, count"
scalar scenarioPRJP1.node[3].wlan.radio 	radioMode:count 	40406
attr interpolationmode  sample-hold
attr source  radioModeChanged
attr title  "Radio mode, count"
statistic scenarioPRJP1.node[3].wlan.radio 	symbolErrorRate:histogram
field count 0
field mean -nan
field stddev -nan
field sum 0
field sqrsum 0
field min -nan
field max -nan
attr source  symbolErrorRate
attr title  "Symbol error rate, histogram"
bin	-INF	0
bin	-0.5	0
bin	-0.46666666666667	0
bin	-0.43333333333333	0
bin	-0.4	0
bin	-0.36666666666667	0
bin	-0.33333333333333	0
bin	-0.3	0
bin	-0.26666666666667	0
bin	-0.23333333333333	0
bin	-0.2	0
bin	-0.16666666666667	0
bin	-0.13333333333333	0
bin	-0.1	0
bin	-0.066666666666667	0
bin	-0.033333333333333	0
bin	0	0
bin	0.033333333333333	0
bin	0.066666666666667	0
bin	0.1	0
bin	0.13333333333333	0
bin	0.16666666666667	0
bin	0.2	0
bin	0.23333333333333	0
bin	0.26666666666667	0
bin	0.3	0
bin	0.33333333333333	0
bin	0.36666666666667	0
bin	0.4	0
bin	0.43333333333333	0
bin	0.46666666666667	0
bin	0.5	0
statistic scenarioPRJP1.node[3].wlan.radio 	bitErrorRate:histogram
field count 0
field mean -nan
field stddev -nan
field sum 0
field sqrsum 0
field min -nan
field max -nan
attr source  bitErrorRate
attr title  "Bit error rate, histogram"
bin	-INF	0
bin	-0.5	0
bin	-0.46666666666667	0
bin	-0.43333333333333	0
bin	-0.4	0
bin	-0.36666666666667	0
bin	-0.33333333333333	0
bin	-0.3	0
bin	-0.26666666666667	0
bin	-0.23333333333333	0
bin	-0.2	0
bin	-0.16666666666667	0
bin	-0.13333333333333	0
bin	-0.1	0
bin	-0.066666666666667	0
bin	-0.033333333333333	0
bin	0	0
bin	0.033333333333333	0
bin	0.066666666666667	0
bin	0.1	0
bin	0.13333333333333	0
bin	0.16666666666667	0
bin	0.2	0
bin	0.23333333333333	0
bin	0.26666666666667	0
bin	0.3	0
bin	0.33333333333333	0
bin	0.36666666666667	0
bin	0.4	0
bin	0.43333333333333	0
bin	0.46666666666667	0
bin	0.5	0
statistic scenarioPRJP1.node[3].wlan.radio 	packetErrorRate:histogram
field count 108551
field mean 0.22652031513281
field stddev 0.40874065515786
field sum 24589.006727982
field sqrsum 23705.241163893
field min 0
field max 1
attr source  packetErrorRate
attr title  "Packet error rate, histogram"
bin	-INF	0
bin	-0.5	0
bin	-0.43333333333333	0
bin	-0.36666666666667	0
bin	-0.3	0
bin	-0.23333333333333	0
bin	-0.16666666666667	0
bin	-0.1	0
bin	-0.033333333333333	80396
bin	0.033333333333333	1386
bin	0.1	701
bin	0.16666666666667	567
bin	0.23333333333333	331
bin	0.3	324
bin	0.36666666666667	262
bin	0.43333333333333	247
bin	0.5	269
bin	0.56666666666667	232
bin	0.63333333333333	221
bin	0.7	234
bin	0.76666666666667	259
bin	0.83333333333333	331
bin	0.9	510
bin	0.96666666666667	22281
bin	1.0333333333333	0
bin	1.1	0
bin	1.1666666666667	0
bin	1.2333333333333	0
bin	1.3	0
bin	1.3666666666667	0
bin	1.4333333333333	0
bin	1.5	0
statistic scenarioPRJP1.node[3].wlan.radio 	minSNIR:histogram
field count 108551
field mean 13521.004600756
field stddev 160461.05215894
field sum 1467718570.4167
field sqrsum 2.8147632117111e+15
field min 0.00011271924048542
field max 3012958.8769377
attr source  minSNIR
attr title  "Min SNIR, histogram"
bin	-INF	0
bin	-21532.702754669	0
bin	-18661.485219855	0
bin	-15790.26768504	0
bin	-12919.050150225	0
bin	-10047.83261541	0
bin	-7176.6150805947	0
bin	-4305.3975457798	0
bin	-1434.1800109649	96342
bin	1437.0375238501	5036
bin	4308.255058665	1368
bin	7179.47259348	817
bin	10050.690128295	572
bin	12921.90766311	356
bin	15793.125197925	246
bin	18664.34273274	245
bin	21535.560267555	198
bin	24406.77780237	141
bin	27277.995337185	160
bin	30149.212872	91
bin	33020.430406814	125
bin	35891.647941629	96
bin	38762.865476444	109
bin	41634.083011259	98
bin	44505.300546074	83
bin	47376.518080889	94
bin	50247.735615704	143
bin	53118.953150519	56
bin	55990.170685334	34
bin	58861.388220149	81
bin	61732.605754964	75
bin	64603.823289779	1985
scalar scenarioPRJP1.node[3].lo0.lo 	droppedPkBitError:count 	0
attr interpolationmode  none
attr source  dropPkBitError
attr title  "packets dropped/bit error, count"
scalar scenarioPRJP1.node[3].lo0.lo 	droppedPkBitError:sum(packetBytes) 	0
attr interpolationmode  none
attr source  dropPkBitError
attr title  "packets dropped/bit error, sum(packetBytes)"
scalar scenarioPRJP1.node[3].lo0.lo 	rcvdPkFromHL:count 	26
attr interpolationmode  none
attr source  packetReceivedFromUpper
attr title  "packets received from higher layer, count"
scalar scenarioPRJP1.node[3].lo0.lo 	rcvdPkFromHL:sum(packetBytes) 	1456
attr interpolationmode  none
attr source  packetReceivedFromUpper
attr title  "packets received from higher layer, sum(packetBytes)"
scalar scenarioPRJP1.node[3].lo0.lo 	passedUpPk:count 	26
attr interpolationmode  none
attr source  packetSentToUpper
attr title  "packets passed to higher layer, count"
scalar scenarioPRJP1.node[3].lo0.lo 	passedUpPk:sum(packetBytes) 	1456
attr interpolationmode  none
attr source  packetSentToUpper
attr title  "packets passed to higher layer, sum(packetBytes)"
scalar scenarioPRJP1.node[64].app 	"Total sent" 	4899
scalar scenarioPRJP1.node[64].app 	"Total received" 	467
scalar scenarioPRJP1.node[64].app 	"Total deleted" 	0
scalar scenarioPRJP1.node[64].app 	dropPk:count 	0
attr interpolationmode  none
attr source  dropPk
attr title  "packets dropped, count"
scalar scenarioPRJP1.node[64].app 	dropPk:sum(packetBytes) 	0
attr interpolationmode  none
attr source  dropPk
attr title  "packets dropped, sum(packetBytes)"
scalar scenarioPRJP1.node[64].app 	outOfOrderPk:count 	0
attr interpolationmode  none
attr source  outOfOrderPk
attr title  "packets received out of order, count"
scalar scenarioPRJP1.node[64].app 	outOfOrderPk:sum(packetBytes) 	0
attr interpolationmode  none
attr source  outOfOrderPk
attr title  "packets received out of order, sum(packetBytes)"
scalar scenarioPRJP1.node[64].app 	rcvdPk:count 	467
attr interpolationmode  none
attr source  rcvdPk
attr title  "packets received, count"
scalar scenarioPRJP1.node[64].app 	rcvdPk:sum(packetBytes) 	239104
attr interpolationmode  none
attr source  rcvdPk
attr title  "packets received, sum(packetBytes)"
statistic scenarioPRJP1.node[64].app 	endToEndDelay:histogram
field count 467
field mean 0.13711767509636
field stddev 0.38270933382663
field sum 64.033954269998
field sqrsum 77.033545273008
field min 0.000891021774
field max 2.262975026154
attr interpolationmode  none
attr source  messageAge(rcvdPk)
attr title  "delay, histogram"
attr unit  s
bin	-INF	0
bin	-1.008168073247	0
bin	-0.87362686057753	0
bin	-0.73908564790807	0
bin	-0.6045444352386	0
bin	-0.47000322256913	0
bin	-0.33546200989967	0
bin	-0.2009207972302	0
bin	-0.066379584560733	395
bin	0.068161628108733	24
bin	0.2027028407782	4
bin	0.33724405344767	0
bin	0.47178526611713	3
bin	0.6063264787866	0
bin	0.74086769145607	3
bin	0.87540890412553	10
bin	1.009950116795	13
bin	1.1444913294645	0
bin	1.2790325421339	1
bin	1.4135737548034	4
bin	1.5481149674729	1
bin	1.6826561801423	2
bin	1.8171973928118	0
bin	1.9517386054813	6
bin	2.0862798181507	0
bin	2.2208210308202	1
bin	2.3553622434897	0
bin	2.4899034561591	0
bin	2.6244446688286	0
bin	2.7589858814981	0
bin	2.8935270941675	0
bin	3.028068306837	0
scalar scenarioPRJP1.node[64].app 	sentPk:count 	4899
attr interpolationmode  none
attr source  sentPk
attr title  "packets sent, count"
scalar scenarioPRJP1.node[64].app 	sentPk:sum(packetBytes) 	2508288
attr interpolationmode  none
attr source  sentPk
attr title  "packets sent, sum(packetBytes)"
scalar scenarioPRJP1.node[64].udp 	droppedPkBadChecksum:count 	0
attr interpolationmode  none
attr title  "packets dropped (checksum error), count"
scalar scenarioPRJP1.node[64].udp 	droppedPkWrongPort:count 	0
attr interpolationmode  none
attr title  "packets dropped (wrong port), count"
scalar scenarioPRJP1.node[64].udp 	passedUpPk:count 	467
attr interpolationmode  none
attr title  "packets passed up, count"
scalar scenarioPRJP1.node[64].udp 	rcvdPk:count 	467
attr interpolationmode  none
attr source  rcvdPk
attr title  "packets received, count"
scalar scenarioPRJP1.node[64].udp 	rcvdPk:sum(packetBytes) 	242840
attr interpolationmode  none
attr source  rcvdPk
attr title  "packets received, sum(packetBytes)"
scalar scenarioPRJP1.node[64].udp 	sentPk:count 	4899
attr interpolationmode  none
attr source  sentPk
attr title  "packets sent, count"
scalar scenarioPRJP1.node[64].udp 	sentPk:sum(packetBytes) 	2547480
attr interpolationmode  none
attr source  sentPk
attr title  "packets sent, sum(packetBytes)"
scalar scenarioPRJP1.node[64].networkLayer.arp 	failedARPResolution:count 	11
attr title  "ARP failed resolutions, count"
scalar scenarioPRJP1.node[64].networkLayer.arp 	completedARPResolution:count 	1087
attr title  "ARP completed resolutions, count"
scalar scenarioPRJP1.node[64].networkLayer.arp 	initiatedARPResolution:count 	116
attr title  "ARP initiated resolutions, count"
scalar scenarioPRJP1.node[64].networkLayer.arp 	sentReply:count 	113
attr title  "ARP replies sent, count"
scalar scenarioPRJP1.node[64].networkLayer.arp 	sentReq:count 	179
attr title  "ARP request sent, count"
scalar scenarioPRJP1.node[64].mobility 	startTime 	7.3
scalar scenarioPRJP1.node[64].mobility 	totalTime 	1747.8
scalar scenarioPRJP1.node[64].mobility 	stopTime 	1755.2
scalar scenarioPRJP1.node[64].mobility 	minSpeed 	2.4756569630552e-13
scalar scenarioPRJP1.node[64].mobility 	maxSpeed 	21.397765320881
scalar scenarioPRJP1.node[64].mobility 	totalDistance 	18214.958994224
scalar scenarioPRJP1.node[64].mobility 	totalCO2Emission 	5442.8262351394
scalar scenarioPRJP1.node[64].wlan.mgmt 	dataQueueLen:max 	2
attr interpolationmode  sample-hold
attr title  "data queue length, max"
scalar scenarioPRJP1.node[64].wlan.mgmt 	dataQueueLen:timeavg 	0
attr interpolationmode  sample-hold
attr title  "data queue length, timeavg"
scalar scenarioPRJP1.node[64].wlan.mgmt 	dropPkByQueue:count 	0
attr interpolationmode  none
attr source  dropPkByQueue
attr title  "packets dropped by queue, count"
scalar scenarioPRJP1.node[64].wlan.mgmt 	dropPkByQueue:sum(packetBytes) 	0
attr interpolationmode  none
attr source  dropPkByQueue
attr title  "packets dropped by queue, sum(packetBytes)"
scalar scenarioPRJP1.node[64].wlan.mac 	"number of received packets" 	2511
scalar scenarioPRJP1.node[64].wlan.mac 	"number of collisions" 	28407
scalar scenarioPRJP1.node[64].wlan.mac 	"number of internal collisions" 	3
scalar scenarioPRJP1.node[64].wlan.mac 	"number of retry for AC 0" 	6362
scalar scenarioPRJP1.node[64].wlan.mac 	"number of retry for AC 1" 	21
scalar scenarioPRJP1.node[64].wlan.mac 	"number of retry for AC 2" 	0
scalar scenarioPRJP1.node[64].wlan.mac 	"number of retry for AC 3" 	0
scalar scenarioPRJP1.node[64].wlan.mac 	"sent and received bits" 	67499520
scalar scenarioPRJP1.node[64].wlan.mac 	"sent packet within AC 0" 	2338
scalar scenarioPRJP1.node[64].wlan.mac 	"sent packet within AC 1" 	146
scalar scenarioPRJP1.node[64].wlan.mac 	"sent packet within AC 2" 	0
scalar scenarioPRJP1.node[64].wlan.mac 	"sent packet within AC 3" 	0
scalar scenarioPRJP1.node[64].wlan.mac 	"sent in TXOP " 	0
scalar scenarioPRJP1.node[64].wlan.mac 	"sentWithoutRetry AC 0" 	1842
scalar scenarioPRJP1.node[64].wlan.mac 	"sentWithoutRetry AC 1" 	139
scalar scenarioPRJP1.node[64].wlan.mac 	"sentWithoutRetry AC 2" 	0
scalar scenarioPRJP1.node[64].wlan.mac 	"sentWithoutRetry AC 3" 	0
scalar scenarioPRJP1.node[64].wlan.mac 	"numGivenUp AC 0" 	771
scalar scenarioPRJP1.node[64].wlan.mac 	"numGivenUp AC 1" 	1
scalar scenarioPRJP1.node[64].wlan.mac 	"numGivenUp AC 2" 	0
scalar scenarioPRJP1.node[64].wlan.mac 	"numGivenUp AC 3" 	0
scalar scenarioPRJP1.node[64].wlan.mac 	"numDropped AC 0" 	0
scalar scenarioPRJP1.node[64].wlan.mac 	"numDropped AC 1" 	0
scalar scenarioPRJP1.node[64].wlan.mac 	"numDropped AC 2" 	0
scalar scenarioPRJP1.node[64].wlan.mac 	"numDropped AC 3" 	0
scalar scenarioPRJP1.node[64].wlan.mac 	rcvdPkFromLL:count 	119764
attr interpolationmode  none
attr source  packetReceivedFromLower
attr title  "packets received from lower layer, count"
scalar scenarioPRJP1.node[64].wlan.mac 	rcvdPkFromLL:sum(packetBytes) 	75823638
attr interpolationmode  none
attr source  packetReceivedFromLower
attr title  "packets received from lower layer, sum(packetBytes)"
scalar scenarioPRJP1.node[64].wlan.mac 	sentDownPk:count 	19175
attr interpolationmode  none
attr source  packetSentToLower
attr title  "packets sent to lower layer, count"
scalar scenarioPRJP1.node[64].wlan.mac 	sentDownPk:sum(packetBytes) 	12501114
attr interpolationmode  none
attr source  packetSentToLower
attr title  "packets sent to lower layer, sum(packetBytes)"
scalar scenarioPRJP1.node[64].wlan.mac 	rcvdPkFromHL:count 	10284
attr interpolationmode  none
attr source  packetReceivedFromUpper
attr title  "packets received from higher layer, count"
scalar scenarioPRJP1.node[64].wlan.mac 	rcvdPkFromHL:sum(packetBytes) 	8878044
attr interpolationmode  none
attr source  packetReceivedFromUpper
attr title  "packets received from higher layer, sum(packetBytes)"
scalar scenarioPRJP1.node[64].wlan.mac 	passedUpPk:count 	38979
attr interpolationmode  none
attr source  packetSentToUpper
attr title  "packets passed to higher layer, count"
scalar scenarioPRJP1.node[64].wlan.mac 	passedUpPk:sum(packetBytes) 	38225616
attr interpolationmode  none
attr source  packetSentToUpper
attr title  "packets passed to higher layer, sum(packetBytes)"
statistic scenarioPRJP1.node[64].wlan.radio 	radioChannel:histogram
field count 1
field mean 3
field stddev -nan
field sum 3
field sqrsum 9
field min 3
field max 3
attr interpolationmode  sample-hold
attr source  radioChannelChanged
attr title  "Radio channel, histogram"
bin	-INF	0
bin	2	0
bin	3	1
bin	4	0
scalar scenarioPRJP1.node[64].wlan.radio 	transmissionState:count 	76700
attr interpolationmode  sample-hold
attr source  transmissionStateChanged
attr title  "Radio transmission state, count"
scalar scenarioPRJP1.node[64].wlan.radio 	receptionState:count 	536234
attr interpolationmode  sample-hold
attr source  receptionStateChanged
attr title  "Radio reception state, count"
scalar scenarioPRJP1.node[64].wlan.radio 	radioMode:count 	38352
attr interpolationmode  sample-hold
attr source  radioModeChanged
attr title  "Radio mode, count"
statistic scenarioPRJP1.node[64].wlan.radio 	symbolErrorRate:histogram
field count 0
field mean -nan
field stddev -nan
field sum 0
field sqrsum 0
field min -nan
field max -nan
attr source  symbolErrorRate
attr title  "Symbol error rate, histogram"
bin	-INF	0
bin	-0.5	0
bin	-0.46666666666667	0
bin	-0.43333333333333	0
bin	-0.4	0
bin	-0.36666666666667	0
bin	-0.33333333333333	0
bin	-0.3	0
bin	-0.26666666666667	0
bin	-0.23333333333333	0
bin	-0.2	0
bin	-0.16666666666667	0
bin	-0.13333333333333	0
bin	-0.1	0
bin	-0.066666666666667	0
bin	-0.033333333333333	0
bin	0	0
bin	0.033333333333333	0
bin	0.066666666666667	0
bin	0.1	0
bin	0.13333333333333	0
bin	0.16666666666667	0
bin	0.2	0
bin	0.23333333333333	0
bin	0.26666666666667	0
bin	0.3	0
bin	0.33333333333333	0
bin	0.36666666666667	0
bin	0.4	0
bin	0.43333333333333	0
bin	0.46666666666667	0
bin	0.5	0
statistic scenarioPRJP1.node[64].wlan.radio 	bitErrorRate:histogram
field count 0
field mean -nan
field stddev -nan
field sum 0
field sqrsum 0
field min -nan
field max -nan
attr source  bitErrorRate
attr title  "Bit error rate, histogram"
bin	-INF	0
bin	-0.5	0
bin	-0.46666666666667	0
bin	-0.43333333333333	0
bin	-0.4	0
bin	-0.36666666666667	0
bin	-0.33333333333333	0
bin	-0.3	0
bin	-0.26666666666667	0
bin	-0.23333333333333	0
bin	-0.2	0
bin	-0.16666666666667	0
bin	-0.13333333333333	0
bin	-0.1	0
bin	-0.066666666666667	0
bin	-0.033333333333333	0
bin	0	0
bin	0.033333333333333	0
bin	0.066666666666667	0
bin	0.1	0
bin	0.13333333333333	0
bin	0.16666666666667	0
bin	0.2	0
bin	0.23333333333333	0
bin	0.26666666666667	0
bin	0.3	0
bin	0.33333333333333	0
bin	0.36666666666667	0
bin	0.4	0
bin	0.43333333333333	0
bin	0.46666666666667	0
bin	0.5	0
statistic scenarioPRJP1.node[64].wlan.radio 	packetErrorRate:histogram
field count 119764
field mean 0.22410336447473
field stddev 0.4078108072519
field sum 26839.515342951
field sqrsum 25932.568842481
field min 0
field max 1
attr source  packetErrorRate
attr title  "Packet error rate, histogram"
bin	-INF	0
bin	-0.5	0
bin	-0.46666666666667	0
bin	-0.43333333333333	0
bin	-0.4	0
bin	-0.36666666666667	0
bin	-0.33333333333333	0
bin	-0.3	0
bin	-0.26666666666667	0
bin	-0.23333333333333	0
bin	-0.2	0
bin	-0.16666666666667	0
bin	-0.13333333333333	0
bin	-0.1	0
bin	-0.066666666666667	0
bin	-0.033333333333333	0
bin	0	89257
bin	0.033333333333333	908
bin	0.066666666666667	582
bin	0.1	396
bin	0.13333333333333	305
bin	0.16666666666667	257
bin	0.2	227
bin	0.23333333333333	211
bin	0.26666666666667	165
bin	0.3	172
bin	0.33333333333333	156
bin	0.36666666666667	144
bin	0.4	147
bin	0.43333333333333	124
bin	0.46666666666667	154
bin	0.5	26559
statistic scenarioPRJP1.node[64].wlan.radio 	minSNIR:histogram
field count 119764
field mean 15981.687574227
field stddev 176451.75446259
field sum 1914030830.6397
field sqrsum 3.7594369935621e+15
field min 0.00014276775654741
field max 3114741.2694721
attr source  minSNIR
attr title  "Min SNIR, histogram"
bin	-INF	0
bin	-34740.672887755	0
bin	-30107.453144551	0
bin	-25474.233401348	0
bin	-20841.013658144	0
bin	-16207.79391494	0
bin	-11574.574171736	0
bin	-6941.3544285327	0
bin	-2308.134685329	107857
bin	2325.0850578747	4208
bin	6958.3048010784	1615
bin	11591.524544282	796
bin	16224.744287486	433
bin	20857.96403069	327
bin	25491.183773893	248
bin	30124.403517097	164
bin	34757.623260301	186
bin	39390.843003504	187
bin	44024.062746708	164
bin	48657.282489912	326
bin	53290.502233116	146
bin	57923.721976319	106
bin	62556.941719523	99
bin	67190.161462727	95
bin	71823.38120593	78
bin	76456.600949134	195
bin	81089.820692338	82
bin	85723.040435541	338
bin	90356.260178745	52
bin	94989.479921949	320
bin	99622.699665153	42
bin	104255.91940836	1700
scalar scenarioPRJP1.node[64].lo0.lo 	droppedPkBitError:count 	0
attr interpolationmode  none
attr source  dropPkBitError
attr title  "packets dropped/bit error, count"
scalar scenarioPRJP1.node[64].lo0.lo 	droppedPkBitError:sum(packetBytes) 	0
attr interpolationmode  none
attr source  dropPkBitError
attr title  "packets dropped/bit error, sum(packetBytes)"
scalar scenarioPRJP1.node[64].lo0.lo 	rcvdPkFromHL:count 	10
attr interpolationmode  none
attr source  packetReceivedFromUpper
attr title  "packets received from higher layer, count"
scalar scenarioPRJP1.node[64].lo0.lo 	rcvdPkFromHL:sum(packetBytes) 	560
attr interpolationmode  none
attr source  packetReceivedFromUpper
attr title  "packets received from higher layer, sum(packetBytes)"
scalar scenarioPRJP1.node[64].lo0.lo 	passedUpPk:count 	10
attr interpolationmode  none
attr source  packetSentToUpper
attr title  "packets passed to higher layer, count"
scalar scenarioPRJP1.node[64].lo0.lo 	passedUpPk:sum(packetBytes) 	560
attr interpolationmode  none
attr source  packetSentToUpper
attr title  "packets passed to higher layer, sum(packetBytes)"
scalar scenarioPRJP1.node[19].app 	"Total sent" 	5007
scalar scenarioPRJP1.node[19].app 	"Total received" 	444
scalar scenarioPRJP1.node[19].app 	"Total deleted" 	0
scalar scenarioPRJP1.node[19].app 	dropPk:count 	0
attr interpolationmode  none
attr source  dropPk
attr title  "packets dropped, count"
scalar scenarioPRJP1.node[19].app 	dropPk:sum(packetBytes) 	0
attr interpolationmode  none
attr source  dropPk
attr title  "packets dropped, sum(packetBytes)"
scalar scenarioPRJP1.node[19].app 	outOfOrderPk:count 	0
attr interpolationmode  none
attr source  outOfOrderPk
attr title  "packets received out of order, count"
scalar scenarioPRJP1.node[19].app 	outOfOrderPk:sum(packetBytes) 	0
attr interpolationmode  none
attr source  outOfOrderPk
attr title  "packets received out of order, sum(packetBytes)"
scalar scenarioPRJP1.node[19].app 	rcvdPk:count 	444
attr interpolationmode  none
attr source  rcvdPk
attr title  "packets received, count"
scalar scenarioPRJP1.node[19].app 	rcvdPk:sum(packetBytes) 	227328
attr interpolationmode  none
attr source  rcvdPk
attr title  "packets received, sum(packetBytes)"
statistic scenarioPRJP1.node[19].app 	endToEndDelay:histogram
field count 444
field mean 0.13256376131145
field stddev 0.40852383559119
field sum 58.858310022286
field sqrsum 81.735512802028
field min 0.000891011007
field max 2.511204409423
attr interpolationmode  none
attr source  messageAge(rcvdPk)
attr title  "delay, histogram"
attr unit  s
bin	-INF	0
bin	-1.0000907898355	0
bin	-0.86662532471677	0
bin	-0.73315985959803	0
bin	-0.5996943944793	0
bin	-0.46622892936057	0
bin	-0.33276346424183	0
bin	-0.1992979991231	0
bin	-0.065832534004367	382
bin	0.067632931114367	22
bin	0.2010983962331	2
bin	0.33456386135183	2
bin	0.46802932647057	3
bin	0.6014947915893	0
bin	0.73496025670803	2
bin	0.86842572182677	1
bin	1.0018911869455	13
bin	1.1353566520642	0
bin	1.268822117183	2
bin	1.4022875823017	2
bin	1.5357530474204	0
bin	1.6692185125392	0
bin	1.8026839776579	0
bin	1.9361494427766	10
bin	2.0696149078954	2
bin	2.2030803730141	0
bin	2.3365458381328	0
bin	2.4700113032516	1
bin	2.6034767683703	0
bin	2.736942233489	0
bin	2.8704076986078	0
bin	3.0038731637265	0
scalar scenarioPRJP1.node[19].app 	sentPk:count 	5007
attr interpolationmode  none
attr source  sentPk
attr title  "packets sent, count"
scalar scenarioPRJP1.node[19].app 	sentPk:sum(packetBytes) 	2563584
attr interpolationmode  none
attr source  sentPk
attr title  "packets sent, sum(packetBytes)"
scalar scenarioPRJP1.node[19].udp 	droppedPkBadChecksum:count 	0
attr interpolationmode  none
attr title  "packets dropped (checksum error), count"
scalar scenarioPRJP1.node[19].udp 	droppedPkWrongPort:count 	0
attr interpolationmode  none
attr title  "packets dropped (wrong port), count"
scalar scenarioPRJP1.node[19].udp 	passedUpPk:count 	444
attr interpolationmode  none
attr title  "packets passed up, count"
scalar scenarioPRJP1.node[19].udp 	rcvdPk:count 	444
attr interpolationmode  none
attr source  rcvdPk
attr title  "packets received, count"
scalar scenarioPRJP1.node[19].udp 	rcvdPk:sum(packetBytes) 	230880
attr interpolationmode  none
attr source  rcvdPk
attr title  "packets received, sum(packetBytes)"
scalar scenarioPRJP1.node[19].udp 	sentPk:count 	5007
attr interpolationmode  none
attr source  sentPk
attr title  "packets sent, count"
scalar scenarioPRJP1.node[19].udp 	sentPk:sum(packetBytes) 	2603640
attr interpolationmode  none
attr source  sentPk
attr title  "packets sent, sum(packetBytes)"
scalar scenarioPRJP1.node[19].networkLayer.arp 	failedARPResolution:count 	20
attr title  "ARP failed resolutions, count"
scalar scenarioPRJP1.node[19].networkLayer.arp 	completedARPResolution:count 	1087
attr title  "ARP completed resolutions, count"
scalar scenarioPRJP1.node[19].networkLayer.arp 	initiatedARPResolution:count 	136
attr title  "ARP initiated resolutions, count"
scalar scenarioPRJP1.node[19].networkLayer.arp 	sentReply:count 	96
attr title  "ARP replies sent, count"
scalar scenarioPRJP1.node[19].networkLayer.arp 	sentReq:count 	229
attr title  "ARP request sent, count"
scalar scenarioPRJP1.node[19].mobility 	startTime 	0.1
scalar scenarioPRJP1.node[19].mobility 	totalTime 	1804.8
scalar scenarioPRJP1.node[19].mobility 	stopTime 	1805
scalar scenarioPRJP1.node[19].mobility 	minSpeed 	2.4755405596313e-13
scalar scenarioPRJP1.node[19].mobility 	maxSpeed 	20.558786977097
scalar scenarioPRJP1.node[19].mobility 	totalDistance 	19993.79899926
scalar scenarioPRJP1.node[19].mobility 	totalCO2Emission 	5459.928608906
scalar scenarioPRJP1.node[19].wlan.mgmt 	dataQueueLen:max 	6
attr interpolationmode  sample-hold
attr title  "data queue length, max"
scalar scenarioPRJP1.node[19].wlan.mgmt 	dataQueueLen:timeavg 	0
attr interpolationmode  sample-hold
attr title  "data queue length, timeavg"
scalar scenarioPRJP1.node[19].wlan.mgmt 	dropPkByQueue:count 	0
attr interpolationmode  none
attr source  dropPkByQueue
attr title  "packets dropped by queue, count"
scalar scenarioPRJP1.node[19].wlan.mgmt 	dropPkByQueue:sum(packetBytes) 	0
attr interpolationmode  none
attr source  dropPkByQueue
attr title  "packets dropped by queue, sum(packetBytes)"
scalar scenarioPRJP1.node[19].wlan.mac 	"number of received packets" 	3279
scalar scenarioPRJP1.node[19].wlan.mac 	"number of collisions" 	28139
scalar scenarioPRJP1.node[19].wlan.mac 	"number of internal collisions" 	1
scalar scenarioPRJP1.node[19].wlan.mac 	"number of retry for AC 0" 	6651
scalar scenarioPRJP1.node[19].wlan.mac 	"number of retry for AC 1" 	29
scalar scenarioPRJP1.node[19].wlan.mac 	"number of retry for AC 2" 	0
scalar scenarioPRJP1.node[19].wlan.mac 	"number of retry for AC 3" 	0
scalar scenarioPRJP1.node[19].wlan.mac 	"sent and received bits" 	69832064
scalar scenarioPRJP1.node[19].wlan.mac 	"sent packet within AC 0" 	3096
scalar scenarioPRJP1.node[19].wlan.mac 	"sent packet within AC 1" 	153
scalar scenarioPRJP1.node[19].wlan.mac 	"sent packet within AC 2" 	0
scalar scenarioPRJP1.node[19].wlan.mac 	"sent packet within AC 3" 	0
scalar scenarioPRJP1.node[19].wlan.mac 	"sent in TXOP " 	0
scalar scenarioPRJP1.node[19].wlan.mac 	"sentWithoutRetry AC 0" 	2524
scalar scenarioPRJP1.node[19].wlan.mac 	"sentWithoutRetry AC 1" 	146
scalar scenarioPRJP1.node[19].wlan.mac 	"sentWithoutRetry AC 2" 	0
scalar scenarioPRJP1.node[19].wlan.mac 	"sentWithoutRetry AC 3" 	0
scalar scenarioPRJP1.node[19].wlan.mac 	"numGivenUp AC 0" 	816
scalar scenarioPRJP1.node[19].wlan.mac 	"numGivenUp AC 1" 	2
scalar scenarioPRJP1.node[19].wlan.mac 	"numGivenUp AC 2" 	0
scalar scenarioPRJP1.node[19].wlan.mac 	"numGivenUp AC 3" 	0
scalar scenarioPRJP1.node[19].wlan.mac 	"numDropped AC 0" 	0
scalar scenarioPRJP1.node[19].wlan.mac 	"numDropped AC 1" 	0
scalar scenarioPRJP1.node[19].wlan.mac 	"numDropped AC 2" 	0
scalar scenarioPRJP1.node[19].wlan.mac 	"numDropped AC 3" 	0
scalar scenarioPRJP1.node[19].wlan.mac 	rcvdPkFromLL:count 	118185
attr interpolationmode  none
attr source  packetReceivedFromLower
attr title  "packets received from lower layer, count"
scalar scenarioPRJP1.node[19].wlan.mac 	rcvdPkFromLL:sum(packetBytes) 	75186012
attr interpolationmode  none
attr source  packetReceivedFromLower
attr title  "packets received from lower layer, sum(packetBytes)"
scalar scenarioPRJP1.node[19].wlan.mac 	sentDownPk:count 	20953
attr interpolationmode  none
attr source  packetSentToLower
attr title  "packets sent to lower layer, count"
scalar scenarioPRJP1.node[19].wlan.mac 	sentDownPk:sum(packetBytes) 	13012134
attr interpolationmode  none
attr source  packetSentToLower
attr title  "packets sent to lower layer, sum(packetBytes)"
scalar scenarioPRJP1.node[19].wlan.mac 	rcvdPkFromHL:count 	10995
attr interpolationmode  none
attr source  packetReceivedFromUpper
attr title  "packets received from higher layer, count"
scalar scenarioPRJP1.node[19].wlan.mac 	rcvdPkFromHL:sum(packetBytes) 	9197672
attr interpolationmode  none
attr source  packetReceivedFromUpper
attr title  "packets received from higher layer, sum(packetBytes)"
scalar scenarioPRJP1.node[19].wlan.mac 	passedUpPk:count 	39673
attr interpolationmode  none
attr source  packetSentToUpper
attr title  "packets passed to higher layer, count"
scalar scenarioPRJP1.node[19].wlan.mac 	passedUpPk:sum(packetBytes) 	38599240
attr interpolationmode  none
attr source  packetSentToUpper
attr title  "packets passed to higher layer, sum(packetBytes)"
statistic scenarioPRJP1.node[19].wlan.radio 	radioChannel:histogram
field count 1
field mean 3
field stddev -nan
field sum 3
field sqrsum 9
field min 3
field max 3
attr interpolationmode  sample-hold
attr source  radioChannelChanged
attr title  "Radio channel, histogram"
bin	-INF	0
bin	2	0
bin	3	1
bin	4	0
scalar scenarioPRJP1.node[19].wlan.radio 	transmissionState:count 	83812
attr interpolationmode  sample-hold
attr source  transmissionStateChanged
attr title  "Radio transmission state, count"
scalar scenarioPRJP1.node[19].wlan.radio 	receptionState:count 	524184
attr interpolationmode  sample-hold
attr source  receptionStateChanged
attr title  "Radio reception state, count"
scalar scenarioPRJP1.node[19].wlan.radio 	radioMode:count 	41908
attr interpolationmode  sample-hold
attr source  radioModeChanged
attr title  "Radio mode, count"
statistic scenarioPRJP1.node[19].wlan.radio 	symbolErrorRate:histogram
field count 0
field mean -nan
field stddev -nan
field sum 0
field sqrsum 0
field min -nan
field max -nan
attr source  symbolErrorRate
attr title  "Symbol error rate, histogram"
bin	-INF	0
bin	-0.5	0
bin	-0.46666666666667	0
bin	-0.43333333333333	0
bin	-0.4	0
bin	-0.36666666666667	0
bin	-0.33333333333333	0
bin	-0.3	0
bin	-0.26666666666667	0
bin	-0.23333333333333	0
bin	-0.2	0
bin	-0.16666666666667	0
bin	-0.13333333333333	0
bin	-0.1	0
bin	-0.066666666666667	0
bin	-0.033333333333333	0
bin	0	0
bin	0.033333333333333	0
bin	0.066666666666667	0
bin	0.1	0
bin	0.13333333333333	0
bin	0.16666666666667	0
bin	0.2	0
bin	0.23333333333333	0
bin	0.26666666666667	0
bin	0.3	0
bin	0.33333333333333	0
bin	0.36666666666667	0
bin	0.4	0
bin	0.43333333333333	0
bin	0.46666666666667	0
bin	0.5	0
statistic scenarioPRJP1.node[19].wlan.radio 	bitErrorRate:histogram
field count 0
field mean -nan
field stddev -nan
field sum 0
field sqrsum 0
field min -nan
field max -nan
attr source  bitErrorRate
attr title  "Bit error rate, histogram"
bin	-INF	0
bin	-0.5	0
bin	-0.46666666666667	0
bin	-0.43333333333333	0
bin	-0.4	0
bin	-0.36666666666667	0
bin	-0.33333333333333	0
bin	-0.3	0
bin	-0.26666666666667	0
bin	-0.23333333333333	0
bin	-0.2	0
bin	-0.16666666666667	0
bin	-0.13333333333333	0
bin	-0.1	0
bin	-0.066666666666667	0
bin	-0.033333333333333	0
bin	0	0
bin	0.033333333333333	0
bin	0.066666666666667	0
bin	0.1	0
bin	0.13333333333333	0
bin	0.16666666666667	0
bin	0.2	0
bin	0.23333333333333	0
bin	0.26666666666667	0
bin	0.3	0
bin	0.33333333333333	0
bin	0.36666666666667	0
bin	0.4	0
bin	0.43333333333333	0
bin	0.46666666666667	0
bin	0.5	0
statistic scenarioPRJP1.node[19].wlan.radio 	packetErrorRate:histogram
field count 118185
field mean 0.22461224256715
field stddev 0.40782406537926
field sum 26545.797887799
field sqrsum 25618.929420172
field min 0
field max 1
attr source  packetErrorRate
attr title  "Packet error rate, histogram"
bin	-INF	0
bin	-0.5	0
bin	-0.43333333333333	0
bin	-0.36666666666667	0
bin	-0.3	0
bin	-0.23333333333333	0
bin	-0.16666666666667	0
bin	-0.1	0
bin	-0.033333333333333	87916
bin	0.033333333333333	1459
bin	0.1	708
bin	0.16666666666667	511
bin	0.23333333333333	416
bin	0.3	376
bin	0.36666666666667	298
bin	0.43333333333333	262
bin	0.5	246
bin	0.56666666666667	228
bin	0.63333333333333	253
bin	0.7	222
bin	0.76666666666667	306
bin	0.83333333333333	313
bin	0.9	541
bin	0.96666666666667	24130
bin	1.0333333333333	0
bin	1.1	0
bin	1.1666666666667	0
bin	1.2333333333333	0
bin	1.3	0
bin	1.3666666666667	0
bin	1.4333333333333	0
bin	1.5	0
statistic scenarioPRJP1.node[19].wlan.radio 	minSNIR:histogram
field count 118185
field mean 13206.855367241
field stddev 157662.66067634
field sum 1560852201.5774
field sqrsum 2.9583744513991e+15
field min 0.0008306237794493
field max 10947944.571879
attr source  minSNIR
attr title  "Min SNIR, histogram"
bin	-INF	0
bin	-54355.66169257	0
bin	-47108.20955552	0
bin	-39860.757418471	0
bin	-32613.305281421	0
bin	-25365.853144371	0
bin	-18118.401007322	0
bin	-10870.948870272	0
bin	-3623.4967332221	108915
bin	3623.9554038277	3626
bin	10871.407540877	1277
bin	18118.859677927	626
bin	25366.311814977	380
bin	32613.763952027	236
bin	39861.216089076	169
bin	47108.668226126	205
bin	54356.120363176	152
bin	61603.572500225	154
bin	68851.024637275	234
bin	76098.476774325	203
bin	83345.928911375	261
bin	90593.381048424	150
bin	97840.833185474	68
bin	105088.28532252	48
bin	112335.73745957	38
bin	119583.18959662	60
bin	126830.64173367	74
bin	134078.09387072	54
bin	141325.54600777	26
bin	148572.99814482	56
bin	155820.45028187	20
bin	163067.90241892	1153
scalar scenarioPRJP1.node[19].lo0.lo 	droppedPkBitError:count 	0
attr interpolationmode  none
attr source  dropPkBitError
attr title  "packets dropped/bit error, count"
scalar scenarioPRJP1.node[19].lo0.lo 	droppedPkBitError:sum(packetBytes) 	0
attr interpolationmode  none
attr source  dropPkBitError
attr title  "packets dropped/bit error, sum(packetBytes)"
scalar scenarioPRJP1.node[19].lo0.lo 	rcvdPkFromHL:count 	19
attr interpolationmode  none
attr source  packetReceivedFromUpper
attr title  "packets received from higher layer, count"
scalar scenarioPRJP1.node[19].lo0.lo 	rcvdPkFromHL:sum(packetBytes) 	1064
attr interpolationmode  none
attr source  packetReceivedFromUpper
attr title  "packets received from higher layer, sum(packetBytes)"
scalar scenarioPRJP1.node[19].lo0.lo 	passedUpPk:count 	19
attr interpolationmode  none
attr source  packetSentToUpper
attr title  "packets passed to higher layer, count"
scalar scenarioPRJP1.node[19].lo0.lo 	passedUpPk:sum(packetBytes) 	1064
attr interpolationmode  none
attr source  packetSentToUpper
attr title  "packets passed to higher layer, sum(packetBytes)"
scalar scenarioPRJP1.node[51].app 	"Total sent" 	4996
scalar scenarioPRJP1.node[51].app 	"Total received" 	534
scalar scenarioPRJP1.node[51].app 	"Total deleted" 	0
scalar scenarioPRJP1.node[51].app 	dropPk:count 	0
attr interpolationmode  none
attr source  dropPk
attr title  "packets dropped, count"
scalar scenarioPRJP1.node[51].app 	dropPk:sum(packetBytes) 	0
attr interpolationmode  none
attr source  dropPk
attr title  "packets dropped, sum(packetBytes)"
scalar scenarioPRJP1.node[51].app 	outOfOrderPk:count 	0
attr interpolationmode  none
attr source  outOfOrderPk
attr title  "packets received out of order, count"
scalar scenarioPRJP1.node[51].app 	outOfOrderPk:sum(packetBytes) 	0
attr interpolationmode  none
attr source  outOfOrderPk
attr title  "packets received out of order, sum(packetBytes)"
scalar scenarioPRJP1.node[51].app 	rcvdPk:count 	534
attr interpolationmode  none
attr source  rcvdPk
attr title  "packets received, count"
scalar scenarioPRJP1.node[51].app 	rcvdPk:sum(packetBytes) 	273408
attr interpolationmode  none
attr source  rcvdPk
attr title  "packets received, sum(packetBytes)"
statistic scenarioPRJP1.node[51].app 	endToEndDelay:histogram
field count 534
field mean 0.15005784555675
field stddev 0.41090112641607
field sum 80.130889527304
field sqrsum 102.01584776778
field min 0.000891011096
field max 2.074479144843
attr interpolationmode  none
attr source  messageAge(rcvdPk)
attr title  "delay, histogram"
attr unit  s
bin	-INF	0
bin	-1.019258264484	0
bin	-0.88323836107333	0
bin	-0.74721845766267	0
bin	-0.611198554252	0
bin	-0.47517865084133	0
bin	-0.33915874743067	0
bin	-0.20313884402	0
bin	-0.067118940609333	433
bin	0.068900962801333	40
bin	0.204920866212	6
bin	0.34094076962267	1
bin	0.47696067303333	7
bin	0.612980576444	1
bin	0.74900047985467	5
bin	0.88502038326533	17
bin	1.021040286676	3
bin	1.1570601900867	3
bin	1.2930800934973	0
bin	1.429099996908	0
bin	1.5651199003187	0
bin	1.7011398037293	5
bin	1.83715970714	0
bin	1.9731796105507	13
bin	2.1091995139613	0
bin	2.245219417372	0
bin	2.3812393207827	0
bin	2.5172592241933	0
bin	2.653279127604	0
bin	2.7892990310147	0
bin	2.9253189344253	0
bin	3.061338837836	0
scalar scenarioPRJP1.node[51].app 	sentPk:count 	4996
attr interpolationmode  none
attr source  sentPk
attr title  "packets sent, count"
scalar scenarioPRJP1.node[51].app 	sentPk:sum(packetBytes) 	2557952
attr interpolationmode  none
attr source  sentPk
attr title  "packets sent, sum(packetBytes)"
scalar scenarioPRJP1.node[51].udp 	droppedPkBadChecksum:count 	0
attr interpolationmode  none
attr title  "packets dropped (checksum error), count"
scalar scenarioPRJP1.node[51].udp 	droppedPkWrongPort:count 	0
attr interpolationmode  none
attr title  "packets dropped (wrong port), count"
scalar scenarioPRJP1.node[51].udp 	passedUpPk:count 	534
attr interpolationmode  none
attr title  "packets passed up, count"
scalar scenarioPRJP1.node[51].udp 	rcvdPk:count 	534
attr interpolationmode  none
attr source  rcvdPk
attr title  "packets received, count"
scalar scenarioPRJP1.node[51].udp 	rcvdPk:sum(packetBytes) 	277680
attr interpolationmode  none
attr source  rcvdPk
attr title  "packets received, sum(packetBytes)"
scalar scenarioPRJP1.node[51].udp 	sentPk:count 	4996
attr interpolationmode  none
attr source  sentPk
attr title  "packets sent, count"
scalar scenarioPRJP1.node[51].udp 	sentPk:sum(packetBytes) 	2597920
attr interpolationmode  none
attr source  sentPk
attr title  "packets sent, sum(packetBytes)"
scalar scenarioPRJP1.node[51].networkLayer.arp 	failedARPResolution:count 	19
attr title  "ARP failed resolutions, count"
scalar scenarioPRJP1.node[51].networkLayer.arp 	completedARPResolution:count 	1295
attr title  "ARP completed resolutions, count"
scalar scenarioPRJP1.node[51].networkLayer.arp 	initiatedARPResolution:count 	135
attr title  "ARP initiated resolutions, count"
scalar scenarioPRJP1.node[51].networkLayer.arp 	sentReply:count 	97
attr title  "ARP replies sent, count"
scalar scenarioPRJP1.node[51].networkLayer.arp 	sentReq:count 	240
attr title  "ARP request sent, count"
scalar scenarioPRJP1.node[51].mobility 	startTime 	4.9
scalar scenarioPRJP1.node[51].mobility 	totalTime 	1828.4
scalar scenarioPRJP1.node[51].mobility 	stopTime 	1833.4
scalar scenarioPRJP1.node[51].mobility 	minSpeed 	2.4755072573824e-13
scalar scenarioPRJP1.node[51].mobility 	maxSpeed 	16.769959065809
scalar scenarioPRJP1.node[51].mobility 	totalDistance 	16739.850711205
scalar scenarioPRJP1.node[51].mobility 	totalCO2Emission 	4592.4964538776
scalar scenarioPRJP1.node[51].wlan.mgmt 	dataQueueLen:max 	4
attr interpolationmode  sample-hold
attr title  "data queue length, max"
scalar scenarioPRJP1.node[51].wlan.mgmt 	dataQueueLen:timeavg 	0
attr interpolationmode  sample-hold
attr title  "data queue length, timeavg"
scalar scenarioPRJP1.node[51].wlan.mgmt 	dropPkByQueue:count 	0
attr interpolationmode  none
attr source  dropPkByQueue
attr title  "packets dropped by queue, count"
scalar scenarioPRJP1.node[51].wlan.mgmt 	dropPkByQueue:sum(packetBytes) 	0
attr interpolationmode  none
attr source  dropPkByQueue
attr title  "packets dropped by queue, sum(packetBytes)"
scalar scenarioPRJP1.node[51].wlan.mac 	"number of received packets" 	2885
scalar scenarioPRJP1.node[51].wlan.mac 	"number of collisions" 	30419
scalar scenarioPRJP1.node[51].wlan.mac 	"number of internal collisions" 	1
scalar scenarioPRJP1.node[51].wlan.mac 	"number of retry for AC 0" 	6300
scalar scenarioPRJP1.node[51].wlan.mac 	"number of retry for AC 1" 	31
scalar scenarioPRJP1.node[51].wlan.mac 	"number of retry for AC 2" 	0
scalar scenarioPRJP1.node[51].wlan.mac 	"number of retry for AC 3" 	0
scalar scenarioPRJP1.node[51].wlan.mac 	"sent and received bits" 	68066592
scalar scenarioPRJP1.node[51].wlan.mac 	"sent packet within AC 0" 	2770
scalar scenarioPRJP1.node[51].wlan.mac 	"sent packet within AC 1" 	101
scalar scenarioPRJP1.node[51].wlan.mac 	"sent packet within AC 2" 	0
scalar scenarioPRJP1.node[51].wlan.mac 	"sent packet within AC 3" 	0
scalar scenarioPRJP1.node[51].wlan.mac 	"sent in TXOP " 	0
scalar scenarioPRJP1.node[51].wlan.mac 	"sentWithoutRetry AC 0" 	2273
scalar scenarioPRJP1.node[51].wlan.mac 	"sentWithoutRetry AC 1" 	94
scalar scenarioPRJP1.node[51].wlan.mac 	"sentWithoutRetry AC 2" 	0
scalar scenarioPRJP1.node[51].wlan.mac 	"sentWithoutRetry AC 3" 	0
scalar scenarioPRJP1.node[51].wlan.mac 	"numGivenUp AC 0" 	779
scalar scenarioPRJP1.node[51].wlan.mac 	"numGivenUp AC 1" 	1
scalar scenarioPRJP1.node[51].wlan.mac 	"numGivenUp AC 2" 	0
scalar scenarioPRJP1.node[51].wlan.mac 	"numGivenUp AC 3" 	0
scalar scenarioPRJP1.node[51].wlan.mac 	"numDropped AC 0" 	0
scalar scenarioPRJP1.node[51].wlan.mac 	"numDropped AC 1" 	0
scalar scenarioPRJP1.node[51].wlan.mac 	"numDropped AC 2" 	0
scalar scenarioPRJP1.node[51].wlan.mac 	"numDropped AC 3" 	0
scalar scenarioPRJP1.node[51].wlan.mac 	rcvdPkFromLL:count 	139057
attr interpolationmode  none
attr source  packetReceivedFromLower
attr title  "packets received from lower layer, count"
scalar scenarioPRJP1.node[51].wlan.mac 	rcvdPkFromLL:sum(packetBytes) 	87201432
attr interpolationmode  none
attr source  packetReceivedFromLower
attr title  "packets received from lower layer, sum(packetBytes)"
scalar scenarioPRJP1.node[51].wlan.mac 	sentDownPk:count 	19748
attr interpolationmode  none
attr source  packetSentToLower
attr title  "packets sent to lower layer, count"
scalar scenarioPRJP1.node[51].wlan.mac 	sentDownPk:sum(packetBytes) 	12583018
attr interpolationmode  none
attr source  packetSentToLower
attr title  "packets sent to lower layer, sum(packetBytes)"
scalar scenarioPRJP1.node[51].wlan.mac 	rcvdPkFromHL:count 	10533
attr interpolationmode  none
attr source  packetReceivedFromUpper
attr title  "packets received from higher layer, count"
scalar scenarioPRJP1.node[51].wlan.mac 	rcvdPkFromHL:sum(packetBytes) 	8954560
attr interpolationmode  none
attr source  packetReceivedFromUpper
attr title  "packets received from higher layer, sum(packetBytes)"
scalar scenarioPRJP1.node[51].wlan.mac 	passedUpPk:count 	44461
attr interpolationmode  none
attr source  packetSentToUpper
attr title  "packets passed to higher layer, count"
scalar scenarioPRJP1.node[51].wlan.mac 	passedUpPk:sum(packetBytes) 	43506892
attr interpolationmode  none
attr source  packetSentToUpper
attr title  "packets passed to higher layer, sum(packetBytes)"
statistic scenarioPRJP1.node[51].wlan.radio 	radioChannel:histogram
field count 1
field mean 3
field stddev -nan
field sum 3
field sqrsum 9
field min 3
field max 3
attr interpolationmode  sample-hold
attr source  radioChannelChanged
attr title  "Radio channel, histogram"
bin	-INF	0
bin	2	0
bin	3	1
bin	4	0
scalar scenarioPRJP1.node[51].wlan.radio 	transmissionState:count 	78992
attr interpolationmode  sample-hold
attr source  transmissionStateChanged
attr title  "Radio transmission state, count"
scalar scenarioPRJP1.node[51].wlan.radio 	receptionState:count 	575620
attr interpolationmode  sample-hold
attr source  receptionStateChanged
attr title  "Radio reception state, count"
scalar scenarioPRJP1.node[51].wlan.radio 	radioMode:count 	39498
attr interpolationmode  sample-hold
attr source  radioModeChanged
attr title  "Radio mode, count"
statistic scenarioPRJP1.node[51].wlan.radio 	symbolErrorRate:histogram
field count 0
field mean -nan
field stddev -nan
field sum 0
field sqrsum 0
field min -nan
field max -nan
attr source  symbolErrorRate
attr title  "Symbol error rate, histogram"
bin	-INF	0
bin	-0.5	0
bin	-0.46666666666667	0
bin	-0.43333333333333	0
bin	-0.4	0
bin	-0.36666666666667	0
bin	-0.33333333333333	0
bin	-0.3	0
bin	-0.26666666666667	0
bin	-0.23333333333333	0
bin	-0.2	0
bin	-0.16666666666667	0
bin	-0.13333333333333	0
bin	-0.1	0
bin	-0.066666666666667	0
bin	-0.033333333333333	0
bin	0	0
bin	0.033333333333333	0
bin	0.066666666666667	0
bin	0.1	0
bin	0.13333333333333	0
bin	0.16666666666667	0
bin	0.2	0
bin	0.23333333333333	0
bin	0.26666666666667	0
bin	0.3	0
bin	0.33333333333333	0
bin	0.36666666666667	0
bin	0.4	0
bin	0.43333333333333	0
bin	0.46666666666667	0
bin	0.5	0
statistic scenarioPRJP1.node[51].wlan.radio 	bitErrorRate:histogram
field count 0
field mean -nan
field stddev -nan
field sum 0
field sqrsum 0
field min -nan
field max -nan
attr source  bitErrorRate
attr title  "Bit error rate, histogram"
bin	-INF	0
bin	-0.5	0
bin	-0.46666666666667	0
bin	-0.43333333333333	0
bin	-0.4	0
bin	-0.36666666666667	0
bin	-0.33333333333333	0
bin	-0.3	0
bin	-0.26666666666667	0
bin	-0.23333333333333	0
bin	-0.2	0
bin	-0.16666666666667	0
bin	-0.13333333333333	0
bin	-0.1	0
bin	-0.066666666666667	0
bin	-0.033333333333333	0
bin	0	0
bin	0.033333333333333	0
bin	0.066666666666667	0
bin	0.1	0
bin	0.13333333333333	0
bin	0.16666666666667	0
bin	0.2	0
bin	0.23333333333333	0
bin	0.26666666666667	0
bin	0.3	0
bin	0.33333333333333	0
bin	0.36666666666667	0
bin	0.4	0
bin	0.43333333333333	0
bin	0.46666666666667	0
bin	0.5	0
statistic scenarioPRJP1.node[51].wlan.radio 	packetErrorRate:histogram
field count 139057
field mean 0.20682896477779
field stddev 0.39619882409157
field sum 28761.015355105
field sqrsum 27776.719189719
field min 0
field max 1
attr source  packetErrorRate
attr title  "Packet error rate, histogram"
bin	-INF	0
bin	-0.5	0
bin	-0.43333333333333	0
bin	-0.36666666666667	0
bin	-0.3	0
bin	-0.23333333333333	0
bin	-0.16666666666667	0
bin	-0.1	0
bin	-0.033333333333333	106321
bin	0.033333333333333	1590
bin	0.1	738
bin	0.16666666666667	548
bin	0.23333333333333	428
bin	0.3	349
bin	0.36666666666667	359
bin	0.43333333333333	282
bin	0.5	286
bin	0.56666666666667	252
bin	0.63333333333333	235
bin	0.7	291
bin	0.76666666666667	249
bin	0.83333333333333	339
bin	0.9	565
bin	0.96666666666667	26225
bin	1.0333333333333	0
bin	1.1	0
bin	1.1666666666667	0
bin	1.2333333333333	0
bin	1.3	0
bin	1.3666666666667	0
bin	1.4333333333333	0
bin	1.5	0
statistic scenarioPRJP1.node[51].wlan.radio 	minSNIR:histogram
field count 139057
field mean 14729.427549902
field stddev 162909.01066754
field sum 2048230006.8068
field sqrsum 3.7206245190314e+15
field min 0.00013668906222626
field max 18055659.621863
attr source  minSNIR
attr title  "Min SNIR, histogram"
bin	-INF	0
bin	-75072.704171019	0
bin	-65062.837204236	0
bin	-55052.970237453	0
bin	-45043.10327067	0
bin	-35033.236303887	0
bin	-25023.369337104	0
bin	-15013.502370321	0
bin	-5003.6354035385	127297
bin	5006.2315632444	4614
bin	15016.098530027	1237
bin	25025.96549681	840
bin	35035.832463593	471
bin	45045.699430376	444
bin	55055.566397159	375
bin	65065.433363942	281
bin	75075.300330725	498
bin	85085.167297508	363
bin	95095.03426429	234
bin	105104.90123107	95
bin	115114.76819786	134
bin	125124.63516464	90
bin	135134.50213142	84
bin	145144.3690982	40
bin	155154.23606499	60
bin	165164.10303177	62
bin	175173.96999855	125
bin	185183.83696534	55
bin	195193.70393212	19
bin	205203.5708989	21
bin	215213.43786569	27
bin	225223.30483247	1591
scalar scenarioPRJP1.node[51].lo0.lo 	droppedPkBitError:count 	0
attr interpolationmode  none
attr source  dropPkBitError
attr title  "packets dropped/bit error, count"
scalar scenarioPRJP1.node[51].lo0.lo 	droppedPkBitError:sum(packetBytes) 	0
attr interpolationmode  none
attr source  dropPkBitError
attr title  "packets dropped/bit error, sum(packetBytes)"
scalar scenarioPRJP1.node[51].lo0.lo 	rcvdPkFromHL:count 	22
attr interpolationmode  none
attr source  packetReceivedFromUpper
attr title  "packets received from higher layer, count"
scalar scenarioPRJP1.node[51].lo0.lo 	rcvdPkFromHL:sum(packetBytes) 	1232
attr interpolationmode  none
attr source  packetReceivedFromUpper
attr title  "packets received from higher layer, sum(packetBytes)"
scalar scenarioPRJP1.node[51].lo0.lo 	passedUpPk:count 	22
attr interpolationmode  none
attr source  packetSentToUpper
attr title  "packets passed to higher layer, count"
scalar scenarioPRJP1.node[51].lo0.lo 	passedUpPk:sum(packetBytes) 	1232
attr interpolationmode  none
attr source  packetSentToUpper
attr title  "packets passed to higher layer, sum(packetBytes)"
scalar scenarioPRJP1.node[26].app 	"Total sent" 	5021
scalar scenarioPRJP1.node[26].app 	"Total received" 	405
scalar scenarioPRJP1.node[26].app 	"Total deleted" 	0
scalar scenarioPRJP1.node[26].app 	dropPk:count 	0
attr interpolationmode  none
attr source  dropPk
attr title  "packets dropped, count"
scalar scenarioPRJP1.node[26].app 	dropPk:sum(packetBytes) 	0
attr interpolationmode  none
attr source  dropPk
attr title  "packets dropped, sum(packetBytes)"
scalar scenarioPRJP1.node[26].app 	outOfOrderPk:count 	0
attr interpolationmode  none
attr source  outOfOrderPk
attr title  "packets received out of order, count"
scalar scenarioPRJP1.node[26].app 	outOfOrderPk:sum(packetBytes) 	0
attr interpolationmode  none
attr source  outOfOrderPk
attr title  "packets received out of order, sum(packetBytes)"
scalar scenarioPRJP1.node[26].app 	rcvdPk:count 	405
attr interpolationmode  none
attr source  rcvdPk
attr title  "packets received, count"
scalar scenarioPRJP1.node[26].app 	rcvdPk:sum(packetBytes) 	207360
attr interpolationmode  none
attr source  rcvdPk
attr title  "packets received, sum(packetBytes)"
statistic scenarioPRJP1.node[26].app 	endToEndDelay:histogram
field count 405
field mean 0.12958450479622
field stddev 0.38177254622273
field sum 52.48172444247
field sqrsum 65.683930200682
field min 0.000891031625
field max 2.111953041167
attr interpolationmode  none
attr source  messageAge(rcvdPk)
attr title  "delay, histogram"
attr unit  s
bin	-INF	0
bin	-1.054639973146	0
bin	-0.9139025058432	0
bin	-0.7731650385404	0
bin	-0.6324275712376	0
bin	-0.4916901039348	0
bin	-0.350952636632	0
bin	-0.2102151693292	0
bin	-0.0694777020264	348
bin	0.0712597652764	20
bin	0.2119972325792	1
bin	0.352734699882	0
bin	0.4934721671848	3
bin	0.6342096344876	1
bin	0.7749471017904	1
bin	0.9156845690932	15
bin	1.056422036396	2
bin	1.1971595036988	4
bin	1.3378969710016	1
bin	1.4786344383044	0
bin	1.6193719056072	0
bin	1.76010937291	1
bin	1.9008468402128	6
bin	2.0415843075156	2
bin	2.1823217748184	0
bin	2.3230592421212	0
bin	2.463796709424	0
bin	2.6045341767268	0
bin	2.7452716440296	0
bin	2.8860091113324	0
bin	3.0267465786352	0
bin	3.167484045938	0
scalar scenarioPRJP1.node[26].app 	sentPk:count 	5021
attr interpolationmode  none
attr source  sentPk
attr title  "packets sent, count"
scalar scenarioPRJP1.node[26].app 	sentPk:sum(packetBytes) 	2570752
attr interpolationmode  none
attr source  sentPk
attr title  "packets sent, sum(packetBytes)"
scalar scenarioPRJP1.node[26].udp 	droppedPkBadChecksum:count 	0
attr interpolationmode  none
attr title  "packets dropped (checksum error), count"
scalar scenarioPRJP1.node[26].udp 	droppedPkWrongPort:count 	0
attr interpolationmode  none
attr title  "packets dropped (wrong port), count"
scalar scenarioPRJP1.node[26].udp 	passedUpPk:count 	405
attr interpolationmode  none
attr title  "packets passed up, count"
scalar scenarioPRJP1.node[26].udp 	rcvdPk:count 	405
attr interpolationmode  none
attr source  rcvdPk
attr title  "packets received, count"
scalar scenarioPRJP1.node[26].udp 	rcvdPk:sum(packetBytes) 	210600
attr interpolationmode  none
attr source  rcvdPk
attr title  "packets received, sum(packetBytes)"
scalar scenarioPRJP1.node[26].udp 	sentPk:count 	5021
attr interpolationmode  none
attr source  sentPk
attr title  "packets sent, count"
scalar scenarioPRJP1.node[26].udp 	sentPk:sum(packetBytes) 	2610920
attr interpolationmode  none
attr source  sentPk
attr title  "packets sent, sum(packetBytes)"
scalar scenarioPRJP1.node[26].networkLayer.arp 	failedARPResolution:count 	24
attr title  "ARP failed resolutions, count"
scalar scenarioPRJP1.node[26].networkLayer.arp 	completedARPResolution:count 	1102
attr title  "ARP completed resolutions, count"
scalar scenarioPRJP1.node[26].networkLayer.arp 	initiatedARPResolution:count 	127
attr title  "ARP initiated resolutions, count"
scalar scenarioPRJP1.node[26].networkLayer.arp 	sentReply:count 	117
attr title  "ARP replies sent, count"
scalar scenarioPRJP1.node[26].networkLayer.arp 	sentReq:count 	216
attr title  "ARP request sent, count"
scalar scenarioPRJP1.node[26].mobility 	startTime 	2.5
scalar scenarioPRJP1.node[26].mobility 	totalTime 	1831.2
scalar scenarioPRJP1.node[26].mobility 	stopTime 	1833.8
scalar scenarioPRJP1.node[26].mobility 	minSpeed 	2.47649926207e-13
scalar scenarioPRJP1.node[26].mobility 	maxSpeed 	19.536106569759
scalar scenarioPRJP1.node[26].mobility 	totalDistance 	21645.379745246
scalar scenarioPRJP1.node[26].mobility 	totalCO2Emission 	5835.1640678621
scalar scenarioPRJP1.node[26].wlan.mgmt 	dataQueueLen:max 	2
attr interpolationmode  sample-hold
attr title  "data queue length, max"
scalar scenarioPRJP1.node[26].wlan.mgmt 	dataQueueLen:timeavg 	0
attr interpolationmode  sample-hold
attr title  "data queue length, timeavg"
scalar scenarioPRJP1.node[26].wlan.mgmt 	dropPkByQueue:count 	0
attr interpolationmode  none
attr source  dropPkByQueue
attr title  "packets dropped by queue, count"
scalar scenarioPRJP1.node[26].wlan.mgmt 	dropPkByQueue:sum(packetBytes) 	0
attr interpolationmode  none
attr source  dropPkByQueue
attr title  "packets dropped by queue, sum(packetBytes)"
scalar scenarioPRJP1.node[26].wlan.mac 	"number of received packets" 	2447
scalar scenarioPRJP1.node[26].wlan.mac 	"number of collisions" 	30514
scalar scenarioPRJP1.node[26].wlan.mac 	"number of internal collisions" 	0
scalar scenarioPRJP1.node[26].wlan.mac 	"number of retry for AC 0" 	6804
scalar scenarioPRJP1.node[26].wlan.mac 	"number of retry for AC 1" 	23
scalar scenarioPRJP1.node[26].wlan.mac 	"number of retry for AC 2" 	0
scalar scenarioPRJP1.node[26].wlan.mac 	"number of retry for AC 3" 	0
scalar scenarioPRJP1.node[26].wlan.mac 	"sent and received bits" 	69815936
scalar scenarioPRJP1.node[26].wlan.mac 	"sent packet within AC 0" 	2218
scalar scenarioPRJP1.node[26].wlan.mac 	"sent packet within AC 1" 	130
scalar scenarioPRJP1.node[26].wlan.mac 	"sent packet within AC 2" 	0
scalar scenarioPRJP1.node[26].wlan.mac 	"sent packet within AC 3" 	0
scalar scenarioPRJP1.node[26].wlan.mac 	"sent in TXOP " 	0
scalar scenarioPRJP1.node[26].wlan.mac 	"sentWithoutRetry AC 0" 	1747
scalar scenarioPRJP1.node[26].wlan.mac 	"sentWithoutRetry AC 1" 	122
scalar scenarioPRJP1.node[26].wlan.mac 	"sentWithoutRetry AC 2" 	0
scalar scenarioPRJP1.node[26].wlan.mac 	"sentWithoutRetry AC 3" 	0
scalar scenarioPRJP1.node[26].wlan.mac 	"numGivenUp AC 0" 	883
scalar scenarioPRJP1.node[26].wlan.mac 	"numGivenUp AC 1" 	2
scalar scenarioPRJP1.node[26].wlan.mac 	"numGivenUp AC 2" 	0
scalar scenarioPRJP1.node[26].wlan.mac 	"numGivenUp AC 3" 	0
scalar scenarioPRJP1.node[26].wlan.mac 	"numDropped AC 0" 	0
scalar scenarioPRJP1.node[26].wlan.mac 	"numDropped AC 1" 	0
scalar scenarioPRJP1.node[26].wlan.mac 	"numDropped AC 2" 	0
scalar scenarioPRJP1.node[26].wlan.mac 	"numDropped AC 3" 	0
scalar scenarioPRJP1.node[26].wlan.mac 	rcvdPkFromLL:count 	117370
attr interpolationmode  none
attr source  packetReceivedFromLower
attr title  "packets received from lower layer, count"
scalar scenarioPRJP1.node[26].wlan.mac 	rcvdPkFromLL:sum(packetBytes) 	75228440
attr interpolationmode  none
attr source  packetReceivedFromLower
attr title  "packets received from lower layer, sum(packetBytes)"
scalar scenarioPRJP1.node[26].wlan.mac 	sentDownPk:count 	19906
attr interpolationmode  none
attr source  packetSentToLower
attr title  "packets sent to lower layer, count"
scalar scenarioPRJP1.node[26].wlan.mac 	sentDownPk:sum(packetBytes) 	13109854
attr interpolationmode  none
attr source  packetSentToLower
attr title  "packets sent to lower layer, sum(packetBytes)"
scalar scenarioPRJP1.node[26].wlan.mac 	rcvdPkFromHL:count 	10632
attr interpolationmode  none
attr source  packetReceivedFromUpper
attr title  "packets received from higher layer, count"
scalar scenarioPRJP1.node[26].wlan.mac 	rcvdPkFromHL:sum(packetBytes) 	9232200
attr interpolationmode  none
attr source  packetReceivedFromUpper
attr title  "packets received from higher layer, sum(packetBytes)"
scalar scenarioPRJP1.node[26].wlan.mac 	passedUpPk:count 	38528
attr interpolationmode  none
attr source  packetSentToUpper
attr title  "packets passed to higher layer, count"
scalar scenarioPRJP1.node[26].wlan.mac 	passedUpPk:sum(packetBytes) 	37741084
attr interpolationmode  none
attr source  packetSentToUpper
attr title  "packets passed to higher layer, sum(packetBytes)"
statistic scenarioPRJP1.node[26].wlan.radio 	radioChannel:histogram
field count 1
field mean 3
field stddev -nan
field sum 3
field sqrsum 9
field min 3
field max 3
attr interpolationmode  sample-hold
attr source  radioChannelChanged
attr title  "Radio channel, histogram"
bin	-INF	0
bin	2	0
bin	3	1
bin	4	0
scalar scenarioPRJP1.node[26].wlan.radio 	transmissionState:count 	79624
attr interpolationmode  sample-hold
attr source  transmissionStateChanged
attr title  "Radio transmission state, count"
scalar scenarioPRJP1.node[26].wlan.radio 	receptionState:count 	507590
attr interpolationmode  sample-hold
attr source  receptionStateChanged
attr title  "Radio reception state, count"
scalar scenarioPRJP1.node[26].wlan.radio 	radioMode:count 	39814
attr interpolationmode  sample-hold
attr source  radioModeChanged
attr title  "Radio mode, count"
statistic scenarioPRJP1.node[26].wlan.radio 	symbolErrorRate:histogram
field count 0
field mean -nan
field stddev -nan
field sum 0
field sqrsum 0
field min -nan
field max -nan
attr source  symbolErrorRate
attr title  "Symbol error rate, histogram"
bin	-INF	0
bin	-0.5	0
bin	-0.46666666666667	0
bin	-0.43333333333333	0
bin	-0.4	0
bin	-0.36666666666667	0
bin	-0.33333333333333	0
bin	-0.3	0
bin	-0.26666666666667	0
bin	-0.23333333333333	0
bin	-0.2	0
bin	-0.16666666666667	0
bin	-0.13333333333333	0
bin	-0.1	0
bin	-0.066666666666667	0
bin	-0.033333333333333	0
bin	0	0
bin	0.033333333333333	0
bin	0.066666666666667	0
bin	0.1	0
bin	0.13333333333333	0
bin	0.16666666666667	0
bin	0.2	0
bin	0.23333333333333	0
bin	0.26666666666667	0
bin	0.3	0
bin	0.33333333333333	0
bin	0.36666666666667	0
bin	0.4	0
bin	0.43333333333333	0
bin	0.46666666666667	0
bin	0.5	0
statistic scenarioPRJP1.node[26].wlan.radio 	bitErrorRate:histogram
field count 0
field mean -nan
field stddev -nan
field sum 0
field sqrsum 0
[...]
field mean 3
field stddev -nan
field sum 3
field sqrsum 9
field min 3
field max 3
attr interpolationmode  sample-hold
attr source  radioChannelChanged
attr title  "Radio channel, histogram"
bin	-INF	0
bin	2	0
bin	3	1
bin	4	0
scalar scenarioPRJP1.node[54].wlan.radio 	transmissionState:count 	67756
attr interpolationmode  sample-hold
attr source  transmissionStateChanged
attr title  "Radio transmission state, count"
scalar scenarioPRJP1.node[54].wlan.radio 	receptionState:count 	456394
attr interpolationmode  sample-hold
attr source  receptionStateChanged
attr title  "Radio reception state, count"
scalar scenarioPRJP1.node[54].wlan.radio 	radioMode:count 	33880
attr interpolationmode  sample-hold
attr source  radioModeChanged
attr title  "Radio mode, count"
statistic scenarioPRJP1.node[54].wlan.radio 	symbolErrorRate:histogram
field count 0
field mean -nan
field stddev -nan
field sum 0
field sqrsum 0
field min -nan
field max -nan
attr source  symbolErrorRate
attr title  "Symbol error rate, histogram"
bin	-INF	0
bin	-0.5	0
bin	-0.46666666666667	0
bin	-0.43333333333333	0
bin	-0.4	0
bin	-0.36666666666667	0
bin	-0.33333333333333	0
bin	-0.3	0
bin	-0.26666666666667	0
bin	-0.23333333333333	0
bin	-0.2	0
bin	-0.16666666666667	0
bin	-0.13333333333333	0
bin	-0.1	0
bin	-0.066666666666667	0
bin	-0.033333333333333	0
bin	0	0
bin	0.033333333333333	0
bin	0.066666666666667	0
bin	0.1	0
bin	0.13333333333333	0
bin	0.16666666666667	0
bin	0.2	0
bin	0.23333333333333	0
bin	0.26666666666667	0
bin	0.3	0
bin	0.33333333333333	0
bin	0.36666666666667	0
bin	0.4	0
bin	0.43333333333333	0
bin	0.46666666666667	0
bin	0.5	0
statistic scenarioPRJP1.node[54].wlan.radio 	bitErrorRate:histogram
field count 0
field mean -nan
field stddev -nan
field sum 0
field sqrsum 0
field min -nan
field max -nan
attr source  bitErrorRate
attr title  "Bit error rate, histogram"
bin	-INF	0
bin	-0.5	0
bin	-0.46666666666667	0
bin	-0.43333333333333	0
bin	-0.4	0
bin	-0.36666666666667	0
bin	-0.33333333333333	0
bin	-0.3	0
bin	-0.26666666666667	0
bin	-0.23333333333333	0
bin	-0.2	0
bin	-0.16666666666667	0
bin	-0.13333333333333	0
bin	-0.1	0
bin	-0.066666666666667	0
bin	-0.033333333333333	0
bin	0	0
bin	0.033333333333333	0
bin	0.066666666666667	0
bin	0.1	0
bin	0.13333333333333	0
bin	0.16666666666667	0
bin	0.2	0
bin	0.23333333333333	0
bin	0.26666666666667	0
bin	0.3	0
bin	0.33333333333333	0
bin	0.36666666666667	0
bin	0.4	0
bin	0.43333333333333	0
bin	0.46666666666667	0
bin	0.5	0
statistic scenarioPRJP1.node[54].wlan.radio 	packetErrorRate:histogram
field count 109311
field mean 0.2094700047196
field stddev 0.3979333901286
field sum 22897.375685904
field sqrsum 22105.659342453
field min 0
field max 1
attr source  packetErrorRate
attr title  "Packet error rate, histogram"
bin	-INF	0
bin	-5.592720623282e-07	0
bin	-4.8470245401777e-07	0
bin	-4.1013284570734e-07	0
bin	-3.3556323739692e-07	0
bin	-2.6099362908649e-07	0
bin	-1.8642402077607e-07	0
bin	-1.1185441246564e-07	0
bin	-3.7284804155213e-08	71672
bin	3.7284804155213e-08	735
bin	1.1185441246564e-07	354
bin	1.8642402077607e-07	225
bin	2.6099362908649e-07	184
bin	3.3556323739692e-07	129
bin	4.1013284570734e-07	122
bin	4.8470245401777e-07	100
bin	5.592720623282e-07	98
bin	6.3384167063862e-07	60
bin	7.0841127894905e-07	67
bin	7.8298088725948e-07	62
bin	8.575504955699e-07	57
bin	9.3212010388033e-07	60
bin	1.0066897121908e-06	55
bin	1.0812593205012e-06	53
bin	1.1558289288116e-06	43
bin	1.230398537122e-06	47
bin	1.3049681454325e-06	33
bin	1.3795377537429e-06	30
bin	1.4541073620533e-06	30
bin	1.5286769703637e-06	33
bin	1.6032465786742e-06	25
bin	1.6778161869846e-06	35037
statistic scenarioPRJP1.node[54].wlan.radio 	minSNIR:histogram
field count 109311
field mean 19511.49385394
field stddev 195792.17800754
field sum 2132820904.6681
field sqrsum 4.2319671304475e+15
field min 0.0013861326772974
field max 10531700.066638
attr source  minSNIR
attr title  "Min SNIR, histogram"
bin	-INF	0
bin	-61740.720049578	0
bin	-53508.034596017	0
bin	-45275.349142456	0
bin	-37042.663688894	0
bin	-28809.978235333	0
bin	-20577.292781772	0
bin	-12344.607328211	0
bin	-4111.9218746498	98641
bin	4120.7635789113	3843
bin	12353.449032472	1371
bin	20586.134486034	714
bin	28818.819939595	514
bin	37051.505393156	367
bin	45284.190846717	402
bin	53516.876300278	321
bin	61749.561753839	182
bin	69982.2472074	195
bin	78214.932660962	128
bin	86447.618114523	335
bin	94680.303568084	199
bin	102912.98902165	95
bin	111145.67447521	122
bin	119378.35992877	94
bin	127611.04538233	47
bin	135843.73083589	32
bin	144076.41628945	45
bin	152309.10174301	69
bin	160541.78719657	69
bin	168774.47265013	36
bin	177007.1581037	50
bin	185239.84355726	1440
scalar scenarioPRJP1.node[54].lo0.lo 	droppedPkBitError:count 	0
attr interpolationmode  none
attr source  dropPkBitError
attr title  "packets dropped/bit error, count"
scalar scenarioPRJP1.node[54].lo0.lo 	droppedPkBitError:sum(packetBytes) 	0
attr interpolationmode  none
attr source  dropPkBitError
attr title  "packets dropped/bit error, sum(packetBytes)"
scalar scenarioPRJP1.node[54].lo0.lo 	rcvdPkFromHL:count 	9
attr interpolationmode  none
attr source  packetReceivedFromUpper
attr title  "packets received from higher layer, count"
scalar scenarioPRJP1.node[54].lo0.lo 	rcvdPkFromHL:sum(packetBytes) 	504
attr interpolationmode  none
attr source  packetReceivedFromUpper
attr title  "packets received from higher layer, sum(packetBytes)"
scalar scenarioPRJP1.node[54].lo0.lo 	passedUpPk:count 	9
attr interpolationmode  none
attr source  packetSentToUpper
attr title  "packets passed to higher layer, count"
scalar scenarioPRJP1.node[54].lo0.lo 	passedUpPk:sum(packetBytes) 	504
attr interpolationmode  none
attr source  packetSentToUpper
attr title  "packets passed to higher layer, sum(packetBytes)"
scalar scenarioPRJP1.node[69].app 	"Total sent" 	5028
scalar scenarioPRJP1.node[69].app 	"Total received" 	404
scalar scenarioPRJP1.node[69].app 	"Total deleted" 	0
scalar scenarioPRJP1.node[69].app 	dropPk:count 	0
attr interpolationmode  none
attr source  dropPk
attr title  "packets dropped, count"
scalar scenarioPRJP1.node[69].app 	dropPk:sum(packetBytes) 	0
attr interpolationmode  none
attr source  dropPk
attr title  "packets dropped, sum(packetBytes)"
scalar scenarioPRJP1.node[69].app 	outOfOrderPk:count 	1
attr interpolationmode  none
attr source  outOfOrderPk
attr title  "packets received out of order, count"
scalar scenarioPRJP1.node[69].app 	outOfOrderPk:sum(packetBytes) 	512
attr interpolationmode  none
attr source  outOfOrderPk
attr title  "packets received out of order, sum(packetBytes)"
scalar scenarioPRJP1.node[69].app 	rcvdPk:count 	404
attr interpolationmode  none
attr source  rcvdPk
attr title  "packets received, count"
scalar scenarioPRJP1.node[69].app 	rcvdPk:sum(packetBytes) 	206848
attr interpolationmode  none
attr source  rcvdPk
attr title  "packets received, sum(packetBytes)"
statistic scenarioPRJP1.node[69].app 	endToEndDelay:histogram
field count 404
field mean 0.13656665496052
field stddev 0.38072045295794
field sum 55.172928604051
field sqrsum 65.948851813934
field min 0.000891011007
field max 2.014498675961
attr interpolationmode  none
attr source  messageAge(rcvdPk)
attr title  "delay, histogram"
attr unit  s
bin	-INF	0
bin	-1.003691093446	0
bin	-0.86974679279213	0
bin	-0.73580249213827	0
bin	-0.6018581914844	0
bin	-0.46791389083053	0
bin	-0.33396959017667	0
bin	-0.2000252895228	0
bin	-0.066080988868933	344
bin	0.067863311784933	15
bin	0.2018076124388	8
bin	0.33575191309267	0
bin	0.46969621374653	1
bin	0.6036405144004	0
bin	0.73758481505427	6
bin	0.87152911570813	4
bin	1.005473416362	10
bin	1.1394177170159	1
bin	1.2733620176697	3
bin	1.4073063183236	3
bin	1.5412506189775	2
bin	1.6751949196313	0
bin	1.8091392202852	0
bin	1.9430835209391	7
bin	2.0770278215929	0
bin	2.2109721222468	0
bin	2.3449164229007	0
bin	2.4788607235545	0
bin	2.6128050242084	0
bin	2.7467493248623	0
bin	2.8806936255161	0
bin	3.01463792617	0
scalar scenarioPRJP1.node[69].app 	sentPk:count 	5028
attr interpolationmode  none
attr source  sentPk
attr title  "packets sent, count"
scalar scenarioPRJP1.node[69].app 	sentPk:sum(packetBytes) 	2574336
attr interpolationmode  none
attr source  sentPk
attr title  "packets sent, sum(packetBytes)"
scalar scenarioPRJP1.node[69].udp 	droppedPkBadChecksum:count 	0
attr interpolationmode  none
attr title  "packets dropped (checksum error), count"
scalar scenarioPRJP1.node[69].udp 	droppedPkWrongPort:count 	0
attr interpolationmode  none
attr title  "packets dropped (wrong port), count"
scalar scenarioPRJP1.node[69].udp 	passedUpPk:count 	405
attr interpolationmode  none
attr title  "packets passed up, count"
scalar scenarioPRJP1.node[69].udp 	rcvdPk:count 	405
attr interpolationmode  none
attr source  rcvdPk
attr title  "packets received, count"
scalar scenarioPRJP1.node[69].udp 	rcvdPk:sum(packetBytes) 	210600
attr interpolationmode  none
attr source  rcvdPk
attr title  "packets received, sum(packetBytes)"
scalar scenarioPRJP1.node[69].udp 	sentPk:count 	5028
attr interpolationmode  none
attr source  sentPk
attr title  "packets sent, count"
scalar scenarioPRJP1.node[69].udp 	sentPk:sum(packetBytes) 	2614560
attr interpolationmode  none
attr source  sentPk
attr title  "packets sent, sum(packetBytes)"
scalar scenarioPRJP1.node[69].networkLayer.arp 	failedARPResolution:count 	12
attr title  "ARP failed resolutions, count"
scalar scenarioPRJP1.node[69].networkLayer.arp 	completedARPResolution:count 	831
attr title  "ARP completed resolutions, count"
scalar scenarioPRJP1.node[69].networkLayer.arp 	initiatedARPResolution:count 	114
attr title  "ARP initiated resolutions, count"
scalar scenarioPRJP1.node[69].networkLayer.arp 	sentReply:count 	97
attr title  "ARP replies sent, count"
scalar scenarioPRJP1.node[69].networkLayer.arp 	sentReq:count 	175
attr title  "ARP request sent, count"
scalar scenarioPRJP1.node[69].mobility 	startTime 	7.3
scalar scenarioPRJP1.node[69].mobility 	totalTime 	1892.7
scalar scenarioPRJP1.node[69].mobility 	stopTime 	1900
scalar scenarioPRJP1.node[69].mobility 	minSpeed 	2.4755177004426e-13
scalar scenarioPRJP1.node[69].mobility 	maxSpeed 	20.997897027402
scalar scenarioPRJP1.node[69].mobility 	totalDistance 	18749.853545525
scalar scenarioPRJP1.node[69].mobility 	totalCO2Emission 	5618.3312964952
scalar scenarioPRJP1.node[69].wlan.mgmt 	dataQueueLen:max 	1
attr interpolationmode  sample-hold
attr title  "data queue length, max"
scalar scenarioPRJP1.node[69].wlan.mgmt 	dataQueueLen:timeavg 	0
attr interpolationmode  sample-hold
attr title  "data queue length, timeavg"
scalar scenarioPRJP1.node[69].wlan.mgmt 	dropPkByQueue:count 	0
attr interpolationmode  none
attr source  dropPkByQueue
attr title  "packets dropped by queue, count"
scalar scenarioPRJP1.node[69].wlan.mgmt 	dropPkByQueue:sum(packetBytes) 	0
attr interpolationmode  none
attr source  dropPkByQueue
attr title  "packets dropped by queue, sum(packetBytes)"
scalar scenarioPRJP1.node[69].wlan.mac 	"number of received packets" 	2457
scalar scenarioPRJP1.node[69].wlan.mac 	"number of collisions" 	20540
scalar scenarioPRJP1.node[69].wlan.mac 	"number of internal collisions" 	1
scalar scenarioPRJP1.node[69].wlan.mac 	"number of retry for AC 0" 	5611
scalar scenarioPRJP1.node[69].wlan.mac 	"number of retry for AC 1" 	35
scalar scenarioPRJP1.node[69].wlan.mac 	"number of retry for AC 2" 	0
scalar scenarioPRJP1.node[69].wlan.mac 	"number of retry for AC 3" 	0
scalar scenarioPRJP1.node[69].wlan.mac 	"sent and received bits" 	65633152
scalar scenarioPRJP1.node[69].wlan.mac 	"sent packet within AC 0" 	2389
scalar scenarioPRJP1.node[69].wlan.mac 	"sent packet within AC 1" 	83
scalar scenarioPRJP1.node[69].wlan.mac 	"sent packet within AC 2" 	0
scalar scenarioPRJP1.node[69].wlan.mac 	"sent packet within AC 3" 	0
scalar scenarioPRJP1.node[69].wlan.mac 	"sent in TXOP " 	0
scalar scenarioPRJP1.node[69].wlan.mac 	"sentWithoutRetry AC 0" 	1933
scalar scenarioPRJP1.node[69].wlan.mac 	"sentWithoutRetry AC 1" 	76
scalar scenarioPRJP1.node[69].wlan.mac 	"sentWithoutRetry AC 2" 	0
scalar scenarioPRJP1.node[69].wlan.mac 	"sentWithoutRetry AC 3" 	0
scalar scenarioPRJP1.node[69].wlan.mac 	"numGivenUp AC 0" 	689
scalar scenarioPRJP1.node[69].wlan.mac 	"numGivenUp AC 1" 	4
scalar scenarioPRJP1.node[69].wlan.mac 	"numGivenUp AC 2" 	0
scalar scenarioPRJP1.node[69].wlan.mac 	"numGivenUp AC 3" 	0
scalar scenarioPRJP1.node[69].wlan.mac 	"numDropped AC 0" 	0
scalar scenarioPRJP1.node[69].wlan.mac 	"numDropped AC 1" 	0
scalar scenarioPRJP1.node[69].wlan.mac 	"numDropped AC 2" 	0
scalar scenarioPRJP1.node[69].wlan.mac 	"numDropped AC 3" 	0
scalar scenarioPRJP1.node[69].wlan.mac 	rcvdPkFromLL:count 	95920
attr interpolationmode  none
attr source  packetReceivedFromLower
attr title  "packets received from lower layer, count"
scalar scenarioPRJP1.node[69].wlan.mac 	rcvdPkFromLL:sum(packetBytes) 	61379778
attr interpolationmode  none
attr source  packetReceivedFromLower
attr title  "packets received from lower layer, sum(packetBytes)"
scalar scenarioPRJP1.node[69].wlan.mac 	sentDownPk:count 	18061
attr interpolationmode  none
attr source  packetSentToLower
attr title  "packets sent to lower layer, count"
scalar scenarioPRJP1.node[69].wlan.mac 	sentDownPk:sum(packetBytes) 	11817618
attr interpolationmode  none
attr source  packetSentToLower
attr title  "packets sent to lower layer, sum(packetBytes)"
scalar scenarioPRJP1.node[69].wlan.mac 	rcvdPkFromHL:count 	9959
attr interpolationmode  none
attr source  packetReceivedFromUpper
attr title  "packets received from higher layer, count"
scalar scenarioPRJP1.node[69].wlan.mac 	rcvdPkFromHL:sum(packetBytes) 	8597792
attr interpolationmode  none
attr source  packetReceivedFromUpper
attr title  "packets received from higher layer, sum(packetBytes)"
scalar scenarioPRJP1.node[69].wlan.mac 	passedUpPk:count 	33779
attr interpolationmode  none
attr source  packetSentToUpper
attr title  "packets passed to higher layer, count"
scalar scenarioPRJP1.node[69].wlan.mac 	passedUpPk:sum(packetBytes) 	33068472
attr interpolationmode  none
attr source  packetSentToUpper
attr title  "packets passed to higher layer, sum(packetBytes)"
statistic scenarioPRJP1.node[69].wlan.radio 	radioChannel:histogram
field count 1
field mean 3
field stddev -nan
field sum 3
field sqrsum 9
field min 3
field max 3
attr interpolationmode  sample-hold
attr source  radioChannelChanged
attr title  "Radio channel, histogram"
bin	-INF	0
bin	2	0
bin	3	1
bin	4	0
scalar scenarioPRJP1.node[69].wlan.radio 	transmissionState:count 	72244
attr interpolationmode  sample-hold
attr source  transmissionStateChanged
attr title  "Radio transmission state, count"
scalar scenarioPRJP1.node[69].wlan.radio 	receptionState:count 	465792
attr interpolationmode  sample-hold
attr source  receptionStateChanged
attr title  "Radio reception state, count"
scalar scenarioPRJP1.node[69].wlan.radio 	radioMode:count 	36124
attr interpolationmode  sample-hold
attr source  radioModeChanged
attr title  "Radio mode, count"
statistic scenarioPRJP1.node[69].wlan.radio 	symbolErrorRate:histogram
field count 0
field mean -nan
field stddev -nan
field sum 0
field sqrsum 0
field min -nan
field max -nan
attr source  symbolErrorRate
attr title  "Symbol error rate, histogram"
bin	-INF	0
bin	-0.5	0
bin	-0.46666666666667	0
bin	-0.43333333333333	0
bin	-0.4	0
bin	-0.36666666666667	0
bin	-0.33333333333333	0
bin	-0.3	0
bin	-0.26666666666667	0
bin	-0.23333333333333	0
bin	-0.2	0
bin	-0.16666666666667	0
bin	-0.13333333333333	0
bin	-0.1	0
bin	-0.066666666666667	0
bin	-0.033333333333333	0
bin	0	0
bin	0.033333333333333	0
bin	0.066666666666667	0
bin	0.1	0
bin	0.13333333333333	0
bin	0.16666666666667	0
bin	0.2	0
bin	0.23333333333333	0
bin	0.26666666666667	0
bin	0.3	0
bin	0.33333333333333	0
bin	0.36666666666667	0
bin	0.4	0
bin	0.43333333333333	0
bin	0.46666666666667	0
bin	0.5	0
statistic scenarioPRJP1.node[69].wlan.radio 	bitErrorRate:histogram
field count 0
field mean -nan
field stddev -nan
field sum 0
field sqrsum 0
field min -nan
field max -nan
attr source  bitErrorRate
attr title  "Bit error rate, histogram"
bin	-INF	0
bin	-0.5	0
bin	-0.46666666666667	0
bin	-0.43333333333333	0
bin	-0.4	0
bin	-0.36666666666667	0
bin	-0.33333333333333	0
bin	-0.3	0
bin	-0.26666666666667	0
bin	-0.23333333333333	0
bin	-0.2	0
bin	-0.16666666666667	0
bin	-0.13333333333333	0
bin	-0.1	0
bin	-0.066666666666667	0
bin	-0.033333333333333	0
bin	0	0
bin	0.033333333333333	0
bin	0.066666666666667	0
bin	0.1	0
bin	0.13333333333333	0
bin	0.16666666666667	0
bin	0.2	0
bin	0.23333333333333	0
bin	0.26666666666667	0
bin	0.3	0
bin	0.33333333333333	0
bin	0.36666666666667	0
bin	0.4	0
bin	0.43333333333333	0
bin	0.46666666666667	0
bin	0.5	0
statistic scenarioPRJP1.node[69].wlan.radio 	packetErrorRate:histogram
field count 95920
field mean 0.20119491848623
field stddev 0.39088775613076
field sum 19298.616581199
field sqrsum 18538.558175404
field min 0
field max 1
attr source  packetErrorRate
attr title  "Packet error rate, histogram"
bin	-INF	0
bin	-3.2771911028795e-05	0
bin	-2.8402322891622e-05	0
bin	-2.403273475445e-05	0
bin	-1.9663146617277e-05	0
bin	-1.5293558480104e-05	0
bin	-1.0923970342932e-05	0
bin	-6.554382205759e-06	0
bin	-2.1847940685863e-06	65109
bin	2.1847940685863e-06	739
bin	6.554382205759e-06	381
bin	1.0923970342932e-05	262
bin	1.5293558480104e-05	164
bin	1.9663146617277e-05	137
bin	2.403273475445e-05	121
bin	2.8402322891622e-05	111
bin	3.2771911028795e-05	107
bin	3.7141499165968e-05	89
bin	4.151108730314e-05	63
bin	4.5880675440313e-05	80
bin	5.0250263577486e-05	60
bin	5.4619851714658e-05	50
bin	5.8989439851831e-05	54
bin	6.3359027989004e-05	54
bin	6.7728616126176e-05	42
bin	7.2098204263349e-05	45
bin	7.6467792400522e-05	40
bin	8.0837380537694e-05	37
bin	8.5206968674867e-05	49
bin	8.957655681204e-05	34
bin	9.3946144949212e-05	29
bin	9.8315733086385e-05	28063
statistic scenarioPRJP1.node[69].wlan.radio 	minSNIR:histogram
field count 95920
field mean 17361.369922123
field stddev 187761.98256203
field sum 1665302602.93
field sqrsum 3.4104942761719e+15
field min 0.00025742621651209
field max 9776532.1648403
attr source  minSNIR
attr title  "Min SNIR, histogram"
bin	-INF	0
bin	-84737.400054975	0
bin	-73438.588079928	0
bin	-62139.776104882	0
bin	-50840.964129835	0
bin	-39542.152154788	0
bin	-28243.340179742	0
bin	-16944.528204695	0
bin	-5645.7162296482	88653
bin	5653.0957453985	3013
bin	16951.907720445	732
bin	28250.719695492	380
bin	39549.531670539	339
bin	50848.343645585	305
bin	62147.155620632	191
bin	73445.967595679	244
bin	84744.779570725	351
bin	96043.591545772	233
bin	107342.40352082	69
bin	118641.21549587	100
bin	129940.02747091	68
bin	141238.83944596	49
bin	152537.65142101	42
bin	163836.46339605	63
bin	175135.2753711	67
bin	186434.08734615	11
bin	197732.89932119	25
bin	209031.71129624	32
bin	220330.52327129	19
bin	231629.33524633	18
bin	242928.14722138	42
bin	254226.95919643	874
scalar scenarioPRJP1.node[69].lo0.lo 	droppedPkBitError:count 	0
attr interpolationmode  none
attr source  dropPkBitError
attr title  "packets dropped/bit error, count"
scalar scenarioPRJP1.node[69].lo0.lo 	droppedPkBitError:sum(packetBytes) 	0
attr interpolationmode  none
attr source  dropPkBitError
attr title  "packets dropped/bit error, sum(packetBytes)"
scalar scenarioPRJP1.node[69].lo0.lo 	rcvdPkFromHL:count 	20
attr interpolationmode  none
attr source  packetReceivedFromUpper
attr title  "packets received from higher layer, count"
scalar scenarioPRJP1.node[69].lo0.lo 	rcvdPkFromHL:sum(packetBytes) 	1120
attr interpolationmode  none
attr source  packetReceivedFromUpper
attr title  "packets received from higher layer, sum(packetBytes)"
scalar scenarioPRJP1.node[69].lo0.lo 	passedUpPk:count 	20
attr interpolationmode  none
attr source  packetSentToUpper
attr title  "packets passed to higher layer, count"
scalar scenarioPRJP1.node[69].lo0.lo 	passedUpPk:sum(packetBytes) 	1120
attr interpolationmode  none
attr source  packetSentToUpper
attr title  "packets passed to higher layer, sum(packetBytes)"
