version 2
run OLSR-ETX-FS-75n-11-20150616-21:49:58-22671
attr configname OLSR-ETX-FS-75n
attr datetime 20150616-21:49:58
attr experiment OLSR-ETX-FS-75n
attr inifile omnetpp.ini
attr iterationvars ""
attr iterationvars2 $repetition=11
attr measurement ""
attr network Prj_Part1_propag.scenarioPRJP1
attr processid 22671
attr repetition 11
attr replication #11
attr resultdir results
attr runnumber 11
attr seedset 11

scalar scenarioPRJP1.node[3].app 	"Total sent" 	4364
scalar scenarioPRJP1.node[3].app 	"Total received" 	430
scalar scenarioPRJP1.node[3].app 	"Total deleted" 	0
scalar scenarioPRJP1.node[3].app 	dropPk:count 	0
attr interpolationmode  none
attr source  dropPk
attr title  "packets dropped, count"
scalar scenarioPRJP1.node[3].app 	dropPk:sum(packetBytes) 	0
attr interpolationmode  none
attr source  dropPk
attr title  "packets dropped, sum(packetBytes)"
scalar scenarioPRJP1.node[3].app 	outOfOrderPk:count 	1
attr interpolationmode  none
attr source  outOfOrderPk
attr title  "packets received out of order, count"
scalar scenarioPRJP1.node[3].app 	outOfOrderPk:sum(packetBytes) 	512
attr interpolationmode  none
attr source  outOfOrderPk
attr title  "packets received out of order, sum(packetBytes)"
scalar scenarioPRJP1.node[3].app 	rcvdPk:count 	430
attr interpolationmode  none
attr source  rcvdPk
attr title  "packets received, count"
scalar scenarioPRJP1.node[3].app 	rcvdPk:sum(packetBytes) 	220160
attr interpolationmode  none
attr source  rcvdPk
attr title  "packets received, sum(packetBytes)"
statistic scenarioPRJP1.node[3].app 	endToEndDelay:histogram
field count 430
field mean 0.091773168666991
field stddev 0.31848661110689
field sum 39.462462526806
field sqrsum 47.136661733405
field min 0.000891083793
field max 2.758931881905
attr interpolationmode  none
attr source  messageAge(rcvdPk)
attr title  "delay, histogram"
attr unit  s
bin	-INF	0
bin	-0.5227672164705	0
bin	-0.45294609338097	0
bin	-0.38312497029143	0
bin	-0.3133038472019	0
bin	-0.24348272411237	0
bin	-0.17366160102283	0
bin	-0.1038404779333	0
bin	-0.034019354843767	318
bin	0.035801768245767	83
bin	0.1056228913353	5
bin	0.17544401442483	0
bin	0.24526513751437	1
bin	0.3150862606039	0
bin	0.38490738369343	0
bin	0.45472850678297	0
bin	0.5245496298725	0
bin	0.59437075296203	0
bin	0.66419187605157	0
bin	0.7340129991411	3
bin	0.80383412223063	2
bin	0.87365524532017	0
bin	0.9434763684097	2
bin	1.0132974914992	5
bin	1.0831186145888	0
bin	1.1529397376783	0
bin	1.2227608607678	3
bin	1.2925819838574	0
bin	1.3624031069469	0
bin	1.4322242300364	0
bin	1.502045353126	2
bin	1.5718664762155	6
scalar scenarioPRJP1.node[3].app 	sentPk:count 	4364
attr interpolationmode  none
attr source  sentPk
attr title  "packets sent, count"
scalar scenarioPRJP1.node[3].app 	sentPk:sum(packetBytes) 	2234368
attr interpolationmode  none
attr source  sentPk
attr title  "packets sent, sum(packetBytes)"
scalar scenarioPRJP1.node[3].udp 	droppedPkBadChecksum:count 	0
attr interpolationmode  none
attr title  "packets dropped (checksum error), count"
scalar scenarioPRJP1.node[3].udp 	droppedPkWrongPort:count 	0
attr interpolationmode  none
attr title  "packets dropped (wrong port), count"
scalar scenarioPRJP1.node[3].udp 	passedUpPk:count 	431
attr interpolationmode  none
attr title  "packets passed up, count"
scalar scenarioPRJP1.node[3].udp 	rcvdPk:count 	431
attr interpolationmode  none
attr source  rcvdPk
attr title  "packets received, count"
scalar scenarioPRJP1.node[3].udp 	rcvdPk:sum(packetBytes) 	224120
attr interpolationmode  none
attr source  rcvdPk
attr title  "packets received, sum(packetBytes)"
scalar scenarioPRJP1.node[3].udp 	sentPk:count 	4364
attr interpolationmode  none
attr source  sentPk
attr title  "packets sent, count"
scalar scenarioPRJP1.node[3].udp 	sentPk:sum(packetBytes) 	2269280
attr interpolationmode  none
attr source  sentPk
attr title  "packets sent, sum(packetBytes)"
scalar scenarioPRJP1.node[3].networkLayer.arp 	failedARPResolution:count 	8
attr title  "ARP failed resolutions, count"
scalar scenarioPRJP1.node[3].networkLayer.arp 	completedARPResolution:count 	1151
attr title  "ARP completed resolutions, count"
scalar scenarioPRJP1.node[3].networkLayer.arp 	initiatedARPResolution:count 	138
attr title  "ARP initiated resolutions, count"
scalar scenarioPRJP1.node[3].networkLayer.arp 	sentReply:count 	98
attr title  "ARP replies sent, count"
scalar scenarioPRJP1.node[3].networkLayer.arp 	sentReq:count 	210
attr title  "ARP request sent, count"
scalar scenarioPRJP1.node[3].mobility 	startTime 	0.1
scalar scenarioPRJP1.node[3].mobility 	totalTime 	1571
scalar scenarioPRJP1.node[3].mobility 	stopTime 	1571.2
scalar scenarioPRJP1.node[3].mobility 	minSpeed 	0
scalar scenarioPRJP1.node[3].mobility 	maxSpeed 	20.655970407211
scalar scenarioPRJP1.node[3].mobility 	totalDistance 	18978.918911019
scalar scenarioPRJP1.node[3].mobility 	totalCO2Emission 	5109.2036122801
scalar scenarioPRJP1.node[3].wlan.mgmt 	dataQueueLen:max 	2
attr interpolationmode  sample-hold
attr title  "data queue length, max"
scalar scenarioPRJP1.node[3].wlan.mgmt 	dataQueueLen:timeavg 	0
attr interpolationmode  sample-hold
attr title  "data queue length, timeavg"
scalar scenarioPRJP1.node[3].wlan.mgmt 	dropPkByQueue:count 	0
attr interpolationmode  none
attr source  dropPkByQueue
attr title  "packets dropped by queue, count"
scalar scenarioPRJP1.node[3].wlan.mgmt 	dropPkByQueue:sum(packetBytes) 	0
attr interpolationmode  none
attr source  dropPkByQueue
attr title  "packets dropped by queue, sum(packetBytes)"
scalar scenarioPRJP1.node[3].wlan.mac 	"number of received packets" 	2349
scalar scenarioPRJP1.node[3].wlan.mac 	"number of collisions" 	25572
scalar scenarioPRJP1.node[3].wlan.mac 	"number of internal collisions" 	5
scalar scenarioPRJP1.node[3].wlan.mac 	"number of retry for AC 0" 	5989
scalar scenarioPRJP1.node[3].wlan.mac 	"number of retry for AC 1" 	44
scalar scenarioPRJP1.node[3].wlan.mac 	"number of retry for AC 2" 	0
scalar scenarioPRJP1.node[3].wlan.mac 	"number of retry for AC 3" 	0
scalar scenarioPRJP1.node[3].wlan.mac 	"sent and received bits" 	61322688
scalar scenarioPRJP1.node[3].wlan.mac 	"sent packet within AC 0" 	2202
scalar scenarioPRJP1.node[3].wlan.mac 	"sent packet within AC 1" 	134
scalar scenarioPRJP1.node[3].wlan.mac 	"sent packet within AC 2" 	0
scalar scenarioPRJP1.node[3].wlan.mac 	"sent packet within AC 3" 	0
scalar scenarioPRJP1.node[3].wlan.mac 	"sent in TXOP " 	0
scalar scenarioPRJP1.node[3].wlan.mac 	"sentWithoutRetry AC 0" 	1722
scalar scenarioPRJP1.node[3].wlan.mac 	"sentWithoutRetry AC 1" 	124
scalar scenarioPRJP1.node[3].wlan.mac 	"sentWithoutRetry AC 2" 	0
scalar scenarioPRJP1.node[3].wlan.mac 	"sentWithoutRetry AC 3" 	0
scalar scenarioPRJP1.node[3].wlan.mac 	"numGivenUp AC 0" 	747
scalar scenarioPRJP1.node[3].wlan.mac 	"numGivenUp AC 1" 	3
scalar scenarioPRJP1.node[3].wlan.mac 	"numGivenUp AC 2" 	0
scalar scenarioPRJP1.node[3].wlan.mac 	"numGivenUp AC 3" 	0
scalar scenarioPRJP1.node[3].wlan.mac 	"numDropped AC 0" 	0
scalar scenarioPRJP1.node[3].wlan.mac 	"numDropped AC 1" 	0
scalar scenarioPRJP1.node[3].wlan.mac 	"numDropped AC 2" 	0
scalar scenarioPRJP1.node[3].wlan.mac 	"numDropped AC 3" 	0
scalar scenarioPRJP1.node[3].wlan.mac 	rcvdPkFromLL:count 	109901
attr interpolationmode  none
attr source  packetReceivedFromLower
attr title  "packets received from lower layer, count"
scalar scenarioPRJP1.node[3].wlan.mac 	rcvdPkFromLL:sum(packetBytes) 	69486304
attr interpolationmode  none
attr source  packetReceivedFromLower
attr title  "packets received from lower layer, sum(packetBytes)"
scalar scenarioPRJP1.node[3].wlan.mac 	sentDownPk:count 	17849
attr interpolationmode  none
attr source  packetSentToLower
attr title  "packets sent to lower layer, count"
scalar scenarioPRJP1.node[3].wlan.mac 	sentDownPk:sum(packetBytes) 	11528914
attr interpolationmode  none
attr source  packetSentToLower
attr title  "packets sent to lower layer, sum(packetBytes)"
scalar scenarioPRJP1.node[3].wlan.mac 	rcvdPkFromHL:count 	9472
attr interpolationmode  none
attr source  packetReceivedFromUpper
attr title  "packets received from higher layer, count"
scalar scenarioPRJP1.node[3].wlan.mac 	rcvdPkFromHL:sum(packetBytes) 	8093324
attr interpolationmode  none
attr source  packetReceivedFromUpper
attr title  "packets received from higher layer, sum(packetBytes)"
scalar scenarioPRJP1.node[3].wlan.mac 	passedUpPk:count 	36374
attr interpolationmode  none
attr source  packetSentToUpper
attr title  "packets passed to higher layer, count"
scalar scenarioPRJP1.node[3].wlan.mac 	passedUpPk:sum(packetBytes) 	35462564
attr interpolationmode  none
attr source  packetSentToUpper
attr title  "packets passed to higher layer, sum(packetBytes)"
statistic scenarioPRJP1.node[3].wlan.radio 	radioChannel:histogram
field count 1
field mean 3
field stddev -nan
field sum 3
field sqrsum 9
field min 3
field max 3
attr interpolationmode  sample-hold
attr source  radioChannelChanged
attr title  "Radio channel, histogram"
bin	-INF	0
bin	2	0
bin	3	1
bin	4	0
scalar scenarioPRJP1.node[3].wlan.radio 	transmissionState:count 	71396
attr interpolationmode  sample-hold
attr source  transmissionStateChanged
attr title  "Radio transmission state, count"
scalar scenarioPRJP1.node[3].wlan.radio 	receptionState:count 	454154
attr interpolationmode  sample-hold
attr source  receptionStateChanged
attr title  "Radio reception state, count"
scalar scenarioPRJP1.node[3].wlan.radio 	radioMode:count 	35700
attr interpolationmode  sample-hold
attr source  radioModeChanged
attr title  "Radio mode, count"
statistic scenarioPRJP1.node[3].wlan.radio 	symbolErrorRate:histogram
field count 0
field mean -nan
field stddev -nan
field sum 0
field sqrsum 0
field min -nan
field max -nan
attr source  symbolErrorRate
attr title  "Symbol error rate, histogram"
bin	-INF	0
bin	-0.5	0
bin	-0.46666666666667	0
bin	-0.43333333333333	0
bin	-0.4	0
bin	-0.36666666666667	0
bin	-0.33333333333333	0
bin	-0.3	0
bin	-0.26666666666667	0
bin	-0.23333333333333	0
bin	-0.2	0
bin	-0.16666666666667	0
bin	-0.13333333333333	0
bin	-0.1	0
bin	-0.066666666666667	0
bin	-0.033333333333333	0
bin	0	0
bin	0.033333333333333	0
bin	0.066666666666667	0
bin	0.1	0
bin	0.13333333333333	0
bin	0.16666666666667	0
bin	0.2	0
bin	0.23333333333333	0
bin	0.26666666666667	0
bin	0.3	0
bin	0.33333333333333	0
bin	0.36666666666667	0
bin	0.4	0
bin	0.43333333333333	0
bin	0.46666666666667	0
bin	0.5	0
statistic scenarioPRJP1.node[3].wlan.radio 	bitErrorRate:histogram
field count 0
field mean -nan
field stddev -nan
field sum 0
field sqrsum 0
field min -nan
field max -nan
attr source  bitErrorRate
attr title  "Bit error rate, histogram"
bin	-INF	0
bin	-0.5	0
bin	-0.46666666666667	0
bin	-0.43333333333333	0
bin	-0.4	0
bin	-0.36666666666667	0
bin	-0.33333333333333	0
bin	-0.3	0
bin	-0.26666666666667	0
bin	-0.23333333333333	0
bin	-0.2	0
bin	-0.16666666666667	0
bin	-0.13333333333333	0
bin	-0.1	0
bin	-0.066666666666667	0
bin	-0.033333333333333	0
bin	0	0
bin	0.033333333333333	0
bin	0.066666666666667	0
bin	0.1	0
bin	0.13333333333333	0
bin	0.16666666666667	0
bin	0.2	0
bin	0.23333333333333	0
bin	0.26666666666667	0
bin	0.3	0
bin	0.33333333333333	0
bin	0.36666666666667	0
bin	0.4	0
bin	0.43333333333333	0
bin	0.46666666666667	0
bin	0.5	0
statistic scenarioPRJP1.node[3].wlan.radio 	packetErrorRate:histogram
field count 109901
field mean 0.21883123149959
field stddev 0.40355580842727
field sum 24049.771173036
field sqrsum 23160.857270719
field min 0
field max 1
attr source  packetErrorRate
attr title  "Packet error rate, histogram"
bin	-INF	0
bin	-0.27333463700084	0
bin	-0.23689001873406	0
bin	-0.20044540046728	0
bin	-0.1640007822005	0
bin	-0.12755616393372	0
bin	-0.091111545666946	0
bin	-0.054666927400168	0
bin	-0.018222309133389	81516
bin	0.018222309133389	1345
bin	0.054666927400168	710
bin	0.091111545666946	475
bin	0.12755616393372	335
bin	0.1640007822005	299
bin	0.20044540046728	227
bin	0.23689001873406	190
bin	0.27333463700084	217
bin	0.30977925526762	182
bin	0.3462238735344	169
bin	0.38266849180117	142
bin	0.41911311006795	138
bin	0.45555772833473	147
bin	0.49200234660151	112
bin	0.52844696486829	142
bin	0.56489158313507	139
bin	0.60133620140184	116
bin	0.63778081966862	128
bin	0.6742254379354	119
bin	0.71067005620218	160
bin	0.74711467446896	137
bin	0.78355929273574	161
bin	0.82000391100252	22595
statistic scenarioPRJP1.node[3].wlan.radio 	minSNIR:histogram
field count 109901
field mean 11391.952215749
field stddev 142842.54737979
field sum 1251986940.4631
field sqrsum 2.2566614436806e+15
field min 0.0010718298003079
field max 4797567.8438858
attr source  minSNIR
attr title  "Min SNIR, histogram"
bin	-INF	0
bin	-57893.544137998	0
bin	-50174.120909769	0
bin	-42454.697681539	0
bin	-34735.27445331	0
bin	-27015.851225081	0
bin	-19296.427996852	0
bin	-11577.004768623	0
bin	-3857.5815403933	102199
bin	3861.8416878359	3093
bin	11581.264916065	1013
bin	19300.688144294	512
bin	27020.111372524	303
bin	34739.534600753	236
bin	42458.957828982	257
bin	50178.381057211	204
bin	57897.80428544	155
bin	65617.22751367	199
bin	73336.650741899	155
bin	81056.073970128	87
bin	88775.497198357	80
bin	96494.920426587	114
bin	104214.34365482	53
bin	111933.76688305	27
bin	119653.19011127	56
bin	127372.6133395	61
bin	135092.03656773	34
bin	142811.45979596	37
bin	150530.88302419	62
bin	158250.30625242	59
bin	165969.72948065	17
bin	173689.15270888	888
scalar scenarioPRJP1.node[3].lo0.lo 	droppedPkBitError:count 	0
attr interpolationmode  none
attr source  dropPkBitError
attr title  "packets dropped/bit error, count"
scalar scenarioPRJP1.node[3].lo0.lo 	droppedPkBitError:sum(packetBytes) 	0
attr interpolationmode  none
attr source  dropPkBitError
attr title  "packets dropped/bit error, sum(packetBytes)"
scalar scenarioPRJP1.node[3].lo0.lo 	rcvdPkFromHL:count 	18
attr interpolationmode  none
attr source  packetReceivedFromUpper
attr title  "packets received from higher layer, count"
scalar scenarioPRJP1.node[3].lo0.lo 	rcvdPkFromHL:sum(packetBytes) 	1008
attr interpolationmode  none
attr source  packetReceivedFromUpper
attr title  "packets received from higher layer, sum(packetBytes)"
scalar scenarioPRJP1.node[3].lo0.lo 	passedUpPk:count 	18
attr interpolationmode  none
attr source  packetSentToUpper
attr title  "packets passed to higher layer, count"
scalar scenarioPRJP1.node[3].lo0.lo 	passedUpPk:sum(packetBytes) 	1008
attr interpolationmode  none
attr source  packetSentToUpper
attr title  "packets passed to higher layer, sum(packetBytes)"
scalar scenarioPRJP1.node[64].app 	"Total sent" 	4590
scalar scenarioPRJP1.node[64].app 	"Total received" 	382
scalar scenarioPRJP1.node[64].app 	"Total deleted" 	0
scalar scenarioPRJP1.node[64].app 	dropPk:count 	0
attr interpolationmode  none
attr source  dropPk
attr title  "packets dropped, count"
scalar scenarioPRJP1.node[64].app 	dropPk:sum(packetBytes) 	0
attr interpolationmode  none
attr source  dropPk
attr title  "packets dropped, sum(packetBytes)"
scalar scenarioPRJP1.node[64].app 	outOfOrderPk:count 	1
attr interpolationmode  none
attr source  outOfOrderPk
attr title  "packets received out of order, count"
scalar scenarioPRJP1.node[64].app 	outOfOrderPk:sum(packetBytes) 	512
attr interpolationmode  none
attr source  outOfOrderPk
attr title  "packets received out of order, sum(packetBytes)"
scalar scenarioPRJP1.node[64].app 	rcvdPk:count 	382
attr interpolationmode  none
attr source  rcvdPk
attr title  "packets received, count"
scalar scenarioPRJP1.node[64].app 	rcvdPk:sum(packetBytes) 	195584
attr interpolationmode  none
attr source  rcvdPk
attr title  "packets received, sum(packetBytes)"
statistic scenarioPRJP1.node[64].app 	endToEndDelay:histogram
field count 382
field mean 0.10291686382283
field stddev 0.31316330513648
field sum 39.31424198032
field sqrsum 41.411246903791
field min 0.000891079472
field max 2.320154525112
attr interpolationmode  none
attr source  messageAge(rcvdPk)
attr title  "delay, histogram"
attr unit  s
bin	-INF	0
bin	-1.0099151144665	0
bin	-0.8751409552747	0
bin	-0.7403667960829	0
bin	-0.6055926368911	0
bin	-0.4708184776993	0
bin	-0.3360443185075	0
bin	-0.2012701593157	0
bin	-0.0664960001239	338
bin	0.0682781590679	10
bin	0.2030523182597	5
bin	0.3378264774515	1
bin	0.4726006366433	3
bin	0.6073747958351	0
bin	0.7421489550269	1
bin	0.8769231142187	9
bin	1.0116972734105	8
bin	1.1464714326023	2
bin	1.2812455917941	0
bin	1.4160197509859	2
bin	1.5507939101777	0
bin	1.6855680693695	0
bin	1.8203422285613	0
bin	1.9551163877531	2
bin	2.0898905469449	0
bin	2.2246647061367	1
bin	2.3594388653285	0
bin	2.4942130245203	0
bin	2.6289871837121	0
bin	2.7637613429039	0
bin	2.8985355020957	0
bin	3.0333096612875	0
scalar scenarioPRJP1.node[64].app 	sentPk:count 	4590
attr interpolationmode  none
attr source  sentPk
attr title  "packets sent, count"
scalar scenarioPRJP1.node[64].app 	sentPk:sum(packetBytes) 	2350080
attr interpolationmode  none
attr source  sentPk
attr title  "packets sent, sum(packetBytes)"
scalar scenarioPRJP1.node[64].udp 	droppedPkBadChecksum:count 	0
attr interpolationmode  none
attr title  "packets dropped (checksum error), count"
scalar scenarioPRJP1.node[64].udp 	droppedPkWrongPort:count 	0
attr interpolationmode  none
attr title  "packets dropped (wrong port), count"
scalar scenarioPRJP1.node[64].udp 	passedUpPk:count 	383
attr interpolationmode  none
attr title  "packets passed up, count"
scalar scenarioPRJP1.node[64].udp 	rcvdPk:count 	383
attr interpolationmode  none
attr source  rcvdPk
attr title  "packets received, count"
scalar scenarioPRJP1.node[64].udp 	rcvdPk:sum(packetBytes) 	199160
attr interpolationmode  none
attr source  rcvdPk
attr title  "packets received, sum(packetBytes)"
scalar scenarioPRJP1.node[64].udp 	sentPk:count 	4589
attr interpolationmode  none
attr source  sentPk
attr title  "packets sent, count"
scalar scenarioPRJP1.node[64].udp 	sentPk:sum(packetBytes) 	2386280
attr interpolationmode  none
attr source  sentPk
attr title  "packets sent, sum(packetBytes)"
scalar scenarioPRJP1.node[64].networkLayer.arp 	failedARPResolution:count 	11
attr title  "ARP failed resolutions, count"
scalar scenarioPRJP1.node[64].networkLayer.arp 	completedARPResolution:count 	955
attr title  "ARP completed resolutions, count"
scalar scenarioPRJP1.node[64].networkLayer.arp 	initiatedARPResolution:count 	111
attr title  "ARP initiated resolutions, count"
scalar scenarioPRJP1.node[64].networkLayer.arp 	sentReply:count 	86
attr title  "ARP replies sent, count"
scalar scenarioPRJP1.node[64].networkLayer.arp 	sentReq:count 	175
attr title  "ARP request sent, count"
scalar scenarioPRJP1.node[64].mobility 	startTime 	7.3
scalar scenarioPRJP1.node[64].mobility 	totalTime 	1639.6
scalar scenarioPRJP1.node[64].mobility 	stopTime 	1647
scalar scenarioPRJP1.node[64].mobility 	minSpeed 	2.4757294787804e-13
scalar scenarioPRJP1.node[64].mobility 	maxSpeed 	21.251901720836
scalar scenarioPRJP1.node[64].mobility 	totalDistance 	18200.230432114
scalar scenarioPRJP1.node[64].mobility 	totalCO2Emission 	5172.1249520354
scalar scenarioPRJP1.node[64].wlan.mgmt 	dataQueueLen:max 	3
attr interpolationmode  sample-hold
attr title  "data queue length, max"
scalar scenarioPRJP1.node[64].wlan.mgmt 	dataQueueLen:timeavg 	0
attr interpolationmode  sample-hold
attr title  "data queue length, timeavg"
scalar scenarioPRJP1.node[64].wlan.mgmt 	dropPkByQueue:count 	0
attr interpolationmode  none
attr source  dropPkByQueue
attr title  "packets dropped by queue, count"
scalar scenarioPRJP1.node[64].wlan.mgmt 	dropPkByQueue:sum(packetBytes) 	0
attr interpolationmode  none
attr source  dropPkByQueue
attr title  "packets dropped by queue, sum(packetBytes)"
scalar scenarioPRJP1.node[64].wlan.mac 	"number of received packets" 	2014
scalar scenarioPRJP1.node[64].wlan.mac 	"number of collisions" 	20311
scalar scenarioPRJP1.node[64].wlan.mac 	"number of internal collisions" 	1
scalar scenarioPRJP1.node[64].wlan.mac 	"number of retry for AC 0" 	4995
scalar scenarioPRJP1.node[64].wlan.mac 	"number of retry for AC 1" 	13
scalar scenarioPRJP1.node[64].wlan.mac 	"number of retry for AC 2" 	0
scalar scenarioPRJP1.node[64].wlan.mac 	"number of retry for AC 3" 	0
scalar scenarioPRJP1.node[64].wlan.mac 	"sent and received bits" 	53106112
scalar scenarioPRJP1.node[64].wlan.mac 	"sent packet within AC 0" 	2058
scalar scenarioPRJP1.node[64].wlan.mac 	"sent packet within AC 1" 	85
scalar scenarioPRJP1.node[64].wlan.mac 	"sent packet within AC 2" 	0
scalar scenarioPRJP1.node[64].wlan.mac 	"sent packet within AC 3" 	0
scalar scenarioPRJP1.node[64].wlan.mac 	"sent in TXOP " 	0
scalar scenarioPRJP1.node[64].wlan.mac 	"sentWithoutRetry AC 0" 	1652
scalar scenarioPRJP1.node[64].wlan.mac 	"sentWithoutRetry AC 1" 	79
scalar scenarioPRJP1.node[64].wlan.mac 	"sentWithoutRetry AC 2" 	0
scalar scenarioPRJP1.node[64].wlan.mac 	"sentWithoutRetry AC 3" 	0
scalar scenarioPRJP1.node[64].wlan.mac 	"numGivenUp AC 0" 	623
scalar scenarioPRJP1.node[64].wlan.mac 	"numGivenUp AC 1" 	1
scalar scenarioPRJP1.node[64].wlan.mac 	"numGivenUp AC 2" 	0
scalar scenarioPRJP1.node[64].wlan.mac 	"numGivenUp AC 3" 	0
scalar scenarioPRJP1.node[64].wlan.mac 	"numDropped AC 0" 	0
scalar scenarioPRJP1.node[64].wlan.mac 	"numDropped AC 1" 	0
scalar scenarioPRJP1.node[64].wlan.mac 	"numDropped AC 2" 	0
scalar scenarioPRJP1.node[64].wlan.mac 	"numDropped AC 3" 	0
scalar scenarioPRJP1.node[64].wlan.mac 	rcvdPkFromLL:count 	99018
attr interpolationmode  none
attr source  packetReceivedFromLower
attr title  "packets received from lower layer, count"
scalar scenarioPRJP1.node[64].wlan.mac 	rcvdPkFromLL:sum(packetBytes) 	61826394
attr interpolationmode  none
attr source  packetReceivedFromLower
attr title  "packets received from lower layer, sum(packetBytes)"
scalar scenarioPRJP1.node[64].wlan.mac 	sentDownPk:count 	15220
attr interpolationmode  none
attr source  packetSentToLower
attr title  "packets sent to lower layer, count"
scalar scenarioPRJP1.node[64].wlan.mac 	sentDownPk:sum(packetBytes) 	9856548
attr interpolationmode  none
attr source  packetSentToLower
attr title  "packets sent to lower layer, sum(packetBytes)"
scalar scenarioPRJP1.node[64].wlan.mac 	rcvdPkFromHL:count 	8199
attr interpolationmode  none
attr source  packetReceivedFromUpper
attr title  "packets received from higher layer, count"
scalar scenarioPRJP1.node[64].wlan.mac 	rcvdPkFromHL:sum(packetBytes) 	6995668
attr interpolationmode  none
attr source  packetReceivedFromUpper
attr title  "packets received from higher layer, sum(packetBytes)"
scalar scenarioPRJP1.node[64].wlan.mac 	passedUpPk:count 	32997
attr interpolationmode  none
attr source  packetSentToUpper
attr title  "packets passed to higher layer, count"
scalar scenarioPRJP1.node[64].wlan.mac 	passedUpPk:sum(packetBytes) 	32393048
attr interpolationmode  none
attr source  packetSentToUpper
attr title  "packets passed to higher layer, sum(packetBytes)"
statistic scenarioPRJP1.node[64].wlan.radio 	radioChannel:histogram
field count 1
field mean 3
field stddev -nan
field sum 3
field sqrsum 9
field min 3
field max 3
attr interpolationmode  sample-hold
attr source  radioChannelChanged
attr title  "Radio channel, histogram"
bin	-INF	0
bin	2	0
bin	3	1
bin	4	0
scalar scenarioPRJP1.node[64].wlan.radio 	transmissionState:count 	60880
attr interpolationmode  sample-hold
attr source  transmissionStateChanged
attr title  "Radio transmission state, count"
scalar scenarioPRJP1.node[64].wlan.radio 	receptionState:count 	432721
attr interpolationmode  sample-hold
attr source  receptionStateChanged
attr title  "Radio reception state, count"
scalar scenarioPRJP1.node[64].wlan.radio 	radioMode:count 	30442
attr interpolationmode  sample-hold
attr source  radioModeChanged
attr title  "Radio mode, count"
statistic scenarioPRJP1.node[64].wlan.radio 	symbolErrorRate:histogram
field count 0
field mean -nan
field stddev -nan
field sum 0
field sqrsum 0
field min -nan
field max -nan
attr source  symbolErrorRate
attr title  "Symbol error rate, histogram"
bin	-INF	0
bin	-0.5	0
bin	-0.46666666666667	0
bin	-0.43333333333333	0
bin	-0.4	0
bin	-0.36666666666667	0
bin	-0.33333333333333	0
bin	-0.3	0
bin	-0.26666666666667	0
bin	-0.23333333333333	0
bin	-0.2	0
bin	-0.16666666666667	0
bin	-0.13333333333333	0
bin	-0.1	0
bin	-0.066666666666667	0
bin	-0.033333333333333	0
bin	0	0
bin	0.033333333333333	0
bin	0.066666666666667	0
bin	0.1	0
bin	0.13333333333333	0
bin	0.16666666666667	0
bin	0.2	0
bin	0.23333333333333	0
bin	0.26666666666667	0
bin	0.3	0
bin	0.33333333333333	0
bin	0.36666666666667	0
bin	0.4	0
bin	0.43333333333333	0
bin	0.46666666666667	0
bin	0.5	0
statistic scenarioPRJP1.node[64].wlan.radio 	bitErrorRate:histogram
field count 0
field mean -nan
field stddev -nan
field sum 0
field sqrsum 0
field min -nan
field max -nan
attr source  bitErrorRate
attr title  "Bit error rate, histogram"
bin	-INF	0
bin	-0.5	0
bin	-0.46666666666667	0
bin	-0.43333333333333	0
bin	-0.4	0
bin	-0.36666666666667	0
bin	-0.33333333333333	0
bin	-0.3	0
bin	-0.26666666666667	0
bin	-0.23333333333333	0
bin	-0.2	0
bin	-0.16666666666667	0
bin	-0.13333333333333	0
bin	-0.1	0
bin	-0.066666666666667	0
bin	-0.033333333333333	0
bin	0	0
bin	0.033333333333333	0
bin	0.066666666666667	0
bin	0.1	0
bin	0.13333333333333	0
bin	0.16666666666667	0
bin	0.2	0
bin	0.23333333333333	0
bin	0.26666666666667	0
bin	0.3	0
bin	0.33333333333333	0
bin	0.36666666666667	0
bin	0.4	0
bin	0.43333333333333	0
bin	0.46666666666667	0
bin	0.5	0
statistic scenarioPRJP1.node[64].wlan.radio 	packetErrorRate:histogram
field count 99018
field mean 0.19282318592594
field stddev 0.38563233422652
field sum 19092.966224015
field sqrsum 18406.612108042
field min 0
field max 1
attr source  packetErrorRate
attr title  "Packet error rate, histogram"
bin	-INF	23469
bin	-2.2270629784771e-11	0
bin	-1.9301212480135e-11	0
bin	-1.6331795175499e-11	0
bin	-1.3362377870862e-11	0
bin	-1.0392960566226e-11	0
bin	-7.4235432615903e-12	0
bin	-4.4541259569542e-12	0
bin	-1.4847086523181e-12	61883
bin	1.4847086523181e-12	477
bin	4.4541259569542e-12	210
bin	7.4235432615903e-12	139
bin	1.0392960566226e-11	123
bin	1.3362377870862e-11	87
bin	1.6331795175499e-11	57
bin	1.9301212480135e-11	62
bin	2.2270629784771e-11	62
bin	2.5240047089407e-11	47
bin	2.8209464394043e-11	37
bin	3.1178881698679e-11	50
bin	3.4148299003315e-11	41
bin	3.7117716307951e-11	37
bin	4.0087133612587e-11	24
bin	4.3056550917224e-11	38
bin	4.602596822186e-11	27
bin	4.8995385526496e-11	30
bin	5.1964802831132e-11	30
bin	5.4934220135768e-11	35
bin	5.7903637440404e-11	22
bin	6.087305474504e-11	25
bin	6.3842472049676e-11	25
bin	6.6811889354312e-11	11981
statistic scenarioPRJP1.node[64].wlan.radio 	minSNIR:histogram
field count 99018
field mean 17237.525384022
field stddev 179935.61718417
field sum 1706825288.4751
field sqrsum 3.2352776570973e+15
field min 0.00025540647802709
field max 3012958.8769377
attr source  minSNIR
attr title  "Min SNIR, histogram"
bin	-INF	0
bin	-380786.60083165	0
bin	-330014.21526833	0
bin	-279241.82970501	0
bin	-228469.4441417	0
bin	-177697.05857838	0
bin	-126924.67301506	0
bin	-76152.287451738	0
bin	-25379.901888419	94745
bin	25392.4836749	1809
bin	76164.869238219	974
bin	126937.25480154	338
bin	177709.64036486	142
bin	228482.02592818	65
bin	279254.4114915	66
bin	330026.79705482	23
bin	380799.18261813	52
bin	431571.56818145	35
bin	482343.95374477	32
bin	533116.33930809	92
bin	583888.72487141	92
bin	634661.11043473	27
bin	685433.49599805	133
bin	736205.88156137	5
bin	786978.26712469	9
bin	837750.65268801	2
bin	888523.03825133	3
bin	939295.42381465	1
bin	990067.80937796	5
bin	1040840.1949413	6
bin	1091612.5805046	1
bin	1142384.9660679	361
scalar scenarioPRJP1.node[64].lo0.lo 	droppedPkBitError:count 	0
attr interpolationmode  none
attr source  dropPkBitError
attr title  "packets dropped/bit error, count"
scalar scenarioPRJP1.node[64].lo0.lo 	droppedPkBitError:sum(packetBytes) 	0
attr interpolationmode  none
attr source  dropPkBitError
attr title  "packets dropped/bit error, sum(packetBytes)"
scalar scenarioPRJP1.node[64].lo0.lo 	rcvdPkFromHL:count 	12
attr interpolationmode  none
attr source  packetReceivedFromUpper
attr title  "packets received from higher layer, count"
scalar scenarioPRJP1.node[64].lo0.lo 	rcvdPkFromHL:sum(packetBytes) 	672
attr interpolationmode  none
attr source  packetReceivedFromUpper
attr title  "packets received from higher layer, sum(packetBytes)"
scalar scenarioPRJP1.node[64].lo0.lo 	passedUpPk:count 	12
attr interpolationmode  none
attr source  packetSentToUpper
attr title  "packets passed to higher layer, count"
scalar scenarioPRJP1.node[64].lo0.lo 	passedUpPk:sum(packetBytes) 	672
attr interpolationmode  none
attr source  packetSentToUpper
attr title  "packets passed to higher layer, sum(packetBytes)"
scalar scenarioPRJP1.node[53].app 	"Total sent" 	4988
scalar scenarioPRJP1.node[53].app 	"Total received" 	456
scalar scenarioPRJP1.node[53].app 	"Total deleted" 	0
scalar scenarioPRJP1.node[53].app 	dropPk:count 	0
attr interpolationmode  none
attr source  dropPk
attr title  "packets dropped, count"
scalar scenarioPRJP1.node[53].app 	dropPk:sum(packetBytes) 	0
attr interpolationmode  none
attr source  dropPk
attr title  "packets dropped, sum(packetBytes)"
scalar scenarioPRJP1.node[53].app 	outOfOrderPk:count 	0
attr interpolationmode  none
attr source  outOfOrderPk
attr title  "packets received out of order, count"
scalar scenarioPRJP1.node[53].app 	outOfOrderPk:sum(packetBytes) 	0
attr interpolationmode  none
attr source  outOfOrderPk
attr title  "packets received out of order, sum(packetBytes)"
scalar scenarioPRJP1.node[53].app 	rcvdPk:count 	456
attr interpolationmode  none
attr source  rcvdPk
attr title  "packets received, count"
scalar scenarioPRJP1.node[53].app 	rcvdPk:sum(packetBytes) 	233472
attr interpolationmode  none
attr source  rcvdPk
attr title  "packets received, sum(packetBytes)"
statistic scenarioPRJP1.node[53].app 	endToEndDelay:histogram
field count 456
field mean 0.098306388411425
field stddev 0.3230174725501
field sum 44.82771311561
field sqrsum 51.881681422698
field min 0.000891022685
field max 2.259698388764
attr interpolationmode  none
attr source  messageAge(rcvdPk)
attr title  "delay, histogram"
attr unit  s
bin	-INF	0
bin	-1.0310622524005	0
bin	-0.8934684823891	0
bin	-0.7558747123777	0
bin	-0.6182809423663	0
bin	-0.4806871723549	0
bin	-0.3430934023435	0
bin	-0.2054996323321	0
bin	-0.0679058623207	406
bin	0.0696879076907	16
bin	0.2072816777021	2
bin	0.3448754477135	0
bin	0.4824692177249	3
bin	0.6200629877363	0
bin	0.7576567577477	3
bin	0.8952505277591	11
bin	1.0328442977705	7
bin	1.1704380677819	2
bin	1.3080318377933	0
bin	1.4456256078047	0
bin	1.5832193778161	0
bin	1.7208131478275	0
bin	1.8584069178389	0
bin	1.9960006878503	5
bin	2.1335944578617	1
bin	2.2711882278731	0
bin	2.4087819978845	0
bin	2.5463757678959	0
bin	2.6839695379073	0
bin	2.8215633079187	0
bin	2.9591570779301	0
bin	3.0967508479415	0
scalar scenarioPRJP1.node[53].app 	sentPk:count 	4988
attr interpolationmode  none
attr source  sentPk
attr title  "packets sent, count"
scalar scenarioPRJP1.node[53].app 	sentPk:sum(packetBytes) 	2553856
attr interpolationmode  none
attr source  sentPk
attr title  "packets sent, sum(packetBytes)"
scalar scenarioPRJP1.node[53].udp 	droppedPkBadChecksum:count 	0
attr interpolationmode  none
attr title  "packets dropped (checksum error), count"
scalar scenarioPRJP1.node[53].udp 	droppedPkWrongPort:count 	0
attr interpolationmode  none
attr title  "packets dropped (wrong port), count"
scalar scenarioPRJP1.node[53].udp 	passedUpPk:count 	456
attr interpolationmode  none
attr title  "packets passed up, count"
scalar scenarioPRJP1.node[53].udp 	rcvdPk:count 	456
attr interpolationmode  none
attr source  rcvdPk
attr title  "packets received, count"
scalar scenarioPRJP1.node[53].udp 	rcvdPk:sum(packetBytes) 	237120
attr interpolationmode  none
attr source  rcvdPk
attr title  "packets received, sum(packetBytes)"
scalar scenarioPRJP1.node[53].udp 	sentPk:count 	4988
attr interpolationmode  none
attr source  sentPk
attr title  "packets sent, count"
scalar scenarioPRJP1.node[53].udp 	sentPk:sum(packetBytes) 	2593760
attr interpolationmode  none
attr source  sentPk
attr title  "packets sent, sum(packetBytes)"
scalar scenarioPRJP1.node[53].networkLayer.arp 	failedARPResolution:count 	8
attr title  "ARP failed resolutions, count"
scalar scenarioPRJP1.node[53].networkLayer.arp 	completedARPResolution:count 	1079
attr title  "ARP completed resolutions, count"
scalar scenarioPRJP1.node[53].networkLayer.arp 	initiatedARPResolution:count 	108
attr title  "ARP initiated resolutions, count"
scalar scenarioPRJP1.node[53].networkLayer.arp 	sentReply:count 	113
attr title  "ARP replies sent, count"
scalar scenarioPRJP1.node[53].networkLayer.arp 	sentReq:count 	163
attr title  "ARP request sent, count"
scalar scenarioPRJP1.node[53].mobility 	startTime 	4.9
scalar scenarioPRJP1.node[53].mobility 	totalTime 	1782
scalar scenarioPRJP1.node[53].mobility 	stopTime 	1787
scalar scenarioPRJP1.node[53].mobility 	minSpeed 	2.4754214464083e-13
scalar scenarioPRJP1.node[53].mobility 	maxSpeed 	19.973642903981
scalar scenarioPRJP1.node[53].mobility 	totalDistance 	18655.388496492
scalar scenarioPRJP1.node[53].mobility 	totalCO2Emission 	4990.2551053612
scalar scenarioPRJP1.node[53].wlan.mgmt 	dataQueueLen:max 	0
attr interpolationmode  sample-hold
attr title  "data queue length, max"
scalar scenarioPRJP1.node[53].wlan.mgmt 	dataQueueLen:timeavg 	0
attr interpolationmode  sample-hold
attr title  "data queue length, timeavg"
scalar scenarioPRJP1.node[53].wlan.mgmt 	dropPkByQueue:count 	0
attr interpolationmode  none
attr source  dropPkByQueue
attr title  "packets dropped by queue, count"
scalar scenarioPRJP1.node[53].wlan.mgmt 	dropPkByQueue:sum(packetBytes) 	0
attr interpolationmode  none
attr source  dropPkByQueue
attr title  "packets dropped by queue, sum(packetBytes)"
scalar scenarioPRJP1.node[53].wlan.mac 	"number of received packets" 	2694
scalar scenarioPRJP1.node[53].wlan.mac 	"number of collisions" 	24410
scalar scenarioPRJP1.node[53].wlan.mac 	"number of internal collisions" 	3
scalar scenarioPRJP1.node[53].wlan.mac 	"number of retry for AC 0" 	5092
scalar scenarioPRJP1.node[53].wlan.mac 	"number of retry for AC 1" 	46
scalar scenarioPRJP1.node[53].wlan.mac 	"number of retry for AC 2" 	0
scalar scenarioPRJP1.node[53].wlan.mac 	"number of retry for AC 3" 	0
scalar scenarioPRJP1.node[53].wlan.mac 	"sent and received bits" 	64507968
scalar scenarioPRJP1.node[53].wlan.mac 	"sent packet within AC 0" 	2624
scalar scenarioPRJP1.node[53].wlan.mac 	"sent packet within AC 1" 	142
scalar scenarioPRJP1.node[53].wlan.mac 	"sent packet within AC 2" 	0
scalar scenarioPRJP1.node[53].wlan.mac 	"sent packet within AC 3" 	0
scalar scenarioPRJP1.node[53].wlan.mac 	"sent in TXOP " 	0
scalar scenarioPRJP1.node[53].wlan.mac 	"sentWithoutRetry AC 0" 	2144
scalar scenarioPRJP1.node[53].wlan.mac 	"sentWithoutRetry AC 1" 	133
scalar scenarioPRJP1.node[53].wlan.mac 	"sentWithoutRetry AC 2" 	0
scalar scenarioPRJP1.node[53].wlan.mac 	"sentWithoutRetry AC 3" 	0
scalar scenarioPRJP1.node[53].wlan.mac 	"numGivenUp AC 0" 	612
scalar scenarioPRJP1.node[53].wlan.mac 	"numGivenUp AC 1" 	5
scalar scenarioPRJP1.node[53].wlan.mac 	"numGivenUp AC 2" 	0
scalar scenarioPRJP1.node[53].wlan.mac 	"numGivenUp AC 3" 	0
scalar scenarioPRJP1.node[53].wlan.mac 	"numDropped AC 0" 	0
scalar scenarioPRJP1.node[53].wlan.mac 	"numDropped AC 1" 	0
scalar scenarioPRJP1.node[53].wlan.mac 	"numDropped AC 2" 	0
scalar scenarioPRJP1.node[53].wlan.mac 	"numDropped AC 3" 	0
scalar scenarioPRJP1.node[53].wlan.mac 	rcvdPkFromLL:count 	113072
attr interpolationmode  none
attr source  packetReceivedFromLower
attr title  "packets received from lower layer, count"
scalar scenarioPRJP1.node[53].wlan.mac 	rcvdPkFromLL:sum(packetBytes) 	70448490
attr interpolationmode  none
attr source  packetReceivedFromLower
attr title  "packets received from lower layer, sum(packetBytes)"
scalar scenarioPRJP1.node[53].wlan.mac 	sentDownPk:count 	17710
attr interpolationmode  none
attr source  packetSentToLower
attr title  "packets sent to lower layer, count"
scalar scenarioPRJP1.node[53].wlan.mac 	sentDownPk:sum(packetBytes) 	11342576
attr interpolationmode  none
attr source  packetSentToLower
attr title  "packets sent to lower layer, sum(packetBytes)"
scalar scenarioPRJP1.node[53].wlan.mac 	rcvdPkFromHL:count 	9881
attr interpolationmode  none
attr source  packetReceivedFromUpper
attr title  "packets received from higher layer, count"
scalar scenarioPRJP1.node[53].wlan.mac 	rcvdPkFromHL:sum(packetBytes) 	8413396
attr interpolationmode  none
attr source  packetReceivedFromUpper
attr title  "packets received from higher layer, sum(packetBytes)"
scalar scenarioPRJP1.node[53].wlan.mac 	passedUpPk:count 	37014
attr interpolationmode  none
attr source  packetSentToUpper
attr title  "packets passed to higher layer, count"
scalar scenarioPRJP1.node[53].wlan.mac 	passedUpPk:sum(packetBytes) 	36053128
attr interpolationmode  none
attr source  packetSentToUpper
attr title  "packets passed to higher layer, sum(packetBytes)"
statistic scenarioPRJP1.node[53].wlan.radio 	radioChannel:histogram
field count 1
field mean 3
field stddev -nan
field sum 3
field sqrsum 9
field min 3
field max 3
attr interpolationmode  sample-hold
attr source  radioChannelChanged
attr title  "Radio channel, histogram"
bin	-INF	0
bin	2	0
bin	3	1
bin	4	0
scalar scenarioPRJP1.node[53].wlan.radio 	transmissionState:count 	70840
attr interpolationmode  sample-hold
attr source  transmissionStateChanged
attr title  "Radio transmission state, count"
scalar scenarioPRJP1.node[53].wlan.radio 	receptionState:count 	477612
attr interpolationmode  sample-hold
attr source  receptionStateChanged
attr title  "Radio reception state, count"
scalar scenarioPRJP1.node[53].wlan.radio 	radioMode:count 	35422
attr interpolationmode  sample-hold
attr source  radioModeChanged
attr title  "Radio mode, count"
statistic scenarioPRJP1.node[53].wlan.radio 	symbolErrorRate:histogram
field count 0
field mean -nan
field stddev -nan
field sum 0
field sqrsum 0
field min -nan
field max -nan
attr source  symbolErrorRate
attr title  "Symbol error rate, histogram"
bin	-INF	0
bin	-0.5	0
bin	-0.46666666666667	0
bin	-0.43333333333333	0
bin	-0.4	0
bin	-0.36666666666667	0
bin	-0.33333333333333	0
bin	-0.3	0
bin	-0.26666666666667	0
bin	-0.23333333333333	0
bin	-0.2	0
bin	-0.16666666666667	0
bin	-0.13333333333333	0
bin	-0.1	0
bin	-0.066666666666667	0
bin	-0.033333333333333	0
bin	0	0
bin	0.033333333333333	0
bin	0.066666666666667	0
bin	0.1	0
bin	0.13333333333333	0
bin	0.16666666666667	0
bin	0.2	0
bin	0.23333333333333	0
bin	0.26666666666667	0
bin	0.3	0
bin	0.33333333333333	0
bin	0.36666666666667	0
bin	0.4	0
bin	0.43333333333333	0
bin	0.46666666666667	0
bin	0.5	0
statistic scenarioPRJP1.node[53].wlan.radio 	bitErrorRate:histogram
field count 0
field mean -nan
field stddev -nan
field sum 0
field sqrsum 0
field min -nan
field max -nan
attr source  bitErrorRate
attr title  "Bit error rate, histogram"
bin	-INF	0
bin	-0.5	0
bin	-0.46666666666667	0
bin	-0.43333333333333	0
bin	-0.4	0
bin	-0.36666666666667	0
bin	-0.33333333333333	0
bin	-0.3	0
bin	-0.26666666666667	0
bin	-0.23333333333333	0
bin	-0.2	0
bin	-0.16666666666667	0
bin	-0.13333333333333	0
bin	-0.1	0
bin	-0.066666666666667	0
bin	-0.033333333333333	0
bin	0	0
bin	0.033333333333333	0
bin	0.066666666666667	0
bin	0.1	0
bin	0.13333333333333	0
bin	0.16666666666667	0
bin	0.2	0
bin	0.23333333333333	0
bin	0.26666666666667	0
bin	0.3	0
bin	0.33333333333333	0
bin	0.36666666666667	0
bin	0.4	0
bin	0.43333333333333	0
bin	0.46666666666667	0
bin	0.5	0
statistic scenarioPRJP1.node[53].wlan.radio 	packetErrorRate:histogram
field count 113072
field mean 0.20321826118668
field stddev 0.3932478777683
field sum 22978.2952289
field sqrsum 22155.348868608
field min 0
field max 1
attr source  packetErrorRate
attr title  "Packet error rate, histogram"
bin	-INF	0
bin	-8.0814005419705e-05	0
bin	-7.0038804697078e-05	0
bin	-5.926360397445e-05	0
bin	-4.8488403251823e-05	0
bin	-3.7713202529196e-05	0
bin	-2.6938001806568e-05	0
bin	-1.6162801083941e-05	0
bin	-5.3876003613136e-06	78200
bin	5.3876003613137e-06	912
bin	1.6162801083941e-05	449
bin	2.6938001806568e-05	299
bin	3.7713202529196e-05	226
bin	4.8488403251823e-05	171
bin	5.926360397445e-05	141
bin	7.0038804697078e-05	127
bin	8.0814005419705e-05	112
bin	9.1589206142332e-05	101
bin	0.00010236440686496	88
bin	0.00011313960758759	77
bin	0.00012391480831021	74
bin	0.00013469000903284	59
bin	0.00014546520975547	78
bin	0.0001562404104781	74
bin	0.00016701561120072	58
bin	0.00017779081192335	63
bin	0.00018856601264598	50
bin	0.00019934121336861	33
bin	0.00021011641409123	56
bin	0.00022089161481386	41
bin	0.00023166681553649	58
bin	0.00024244201625911	31525
statistic scenarioPRJP1.node[53].wlan.radio 	minSNIR:histogram
field count 113072
field mean 15303.215132342
field stddev 154575.24074338
field sum 1730365141.4442
field sqrsum 2.7281426596245e+15
field min 0.00020180844461698
field max 3012958.8769377
attr source  minSNIR
attr title  "Min SNIR, histogram"
bin	-INF	0
bin	-76206.49617887	0
bin	-66045.159331394	0
bin	-55883.822483918	0
bin	-45722.485636442	0
bin	-35561.148788966	0
bin	-25399.81194149	0
bin	-15238.475094014	0
bin	-5077.1382465376	103826
bin	5084.1986009384	3429
bin	15245.535448414	1060
bin	25406.87229589	495
bin	35568.209143367	402
bin	45729.545990843	512
bin	55890.882838319	281
bin	66052.219685795	233
bin	76213.556533271	286
bin	86374.893380747	318
bin	96536.230228223	144
bin	106697.5670757	109
bin	116858.90392317	127
bin	127020.24077065	129
bin	137181.57761813	68
bin	147342.9144656	87
bin	157504.25131308	74
bin	167665.58816056	73
bin	177826.92500803	24
bin	187988.26185551	18
bin	198149.59870298	53
bin	208310.93555046	18
bin	218472.27239794	17
bin	228633.60924541	1289
scalar scenarioPRJP1.node[53].lo0.lo 	droppedPkBitError:count 	0
attr interpolationmode  none
attr source  dropPkBitError
attr title  "packets dropped/bit error, count"
scalar scenarioPRJP1.node[53].lo0.lo 	droppedPkBitError:sum(packetBytes) 	0
attr interpolationmode  none
attr source  dropPkBitError
attr title  "packets dropped/bit error, sum(packetBytes)"
scalar scenarioPRJP1.node[53].lo0.lo 	rcvdPkFromHL:count 	16
attr interpolationmode  none
attr source  packetReceivedFromUpper
attr title  "packets received from higher layer, count"
scalar scenarioPRJP1.node[53].lo0.lo 	rcvdPkFromHL:sum(packetBytes) 	896
attr interpolationmode  none
attr source  packetReceivedFromUpper
attr title  "packets received from higher layer, sum(packetBytes)"
scalar scenarioPRJP1.node[53].lo0.lo 	passedUpPk:count 	16
attr interpolationmode  none
attr source  packetSentToUpper
attr title  "packets passed to higher layer, count"
scalar scenarioPRJP1.node[53].lo0.lo 	passedUpPk:sum(packetBytes) 	896
attr interpolationmode  none
attr source  packetSentToUpper
attr title  "packets passed to higher layer, sum(packetBytes)"
scalar scenarioPRJP1.node[19].app 	"Total sent" 	5012
scalar scenarioPRJP1.node[19].app 	"Total received" 	480
scalar scenarioPRJP1.node[19].app 	"Total deleted" 	0
scalar scenarioPRJP1.node[19].app 	dropPk:count 	0
attr interpolationmode  none
attr source  dropPk
attr title  "packets dropped, count"
scalar scenarioPRJP1.node[19].app 	dropPk:sum(packetBytes) 	0
attr interpolationmode  none
attr source  dropPk
attr title  "packets dropped, sum(packetBytes)"
scalar scenarioPRJP1.node[19].app 	outOfOrderPk:count 	0
attr interpolationmode  none
attr source  outOfOrderPk
attr title  "packets received out of order, count"
scalar scenarioPRJP1.node[19].app 	outOfOrderPk:sum(packetBytes) 	0
attr interpolationmode  none
attr source  outOfOrderPk
attr title  "packets received out of order, sum(packetBytes)"
scalar scenarioPRJP1.node[19].app 	rcvdPk:count 	480
attr interpolationmode  none
attr source  rcvdPk
attr title  "packets received, count"
scalar scenarioPRJP1.node[19].app 	rcvdPk:sum(packetBytes) 	245760
attr interpolationmode  none
attr source  rcvdPk
attr title  "packets received, sum(packetBytes)"
statistic scenarioPRJP1.node[19].app 	endToEndDelay:histogram
field count 480
field mean 0.10091384264443
field stddev 0.32808547825898
field sum 48.438644469326
field sqrsum 56.447728566165
field min 0.000891037502
field max 2.114879402044
attr interpolationmode  none
attr source  messageAge(rcvdPk)
attr title  "delay, histogram"
attr unit  s
bin	-INF	0
bin	-0.521372270468	0
bin	-0.45173713147853	0
bin	-0.38210199248907	0
bin	-0.3124668534996	0
bin	-0.24283171451013	0
bin	-0.17319657552067	0
bin	-0.1035614365312	0
bin	-0.033926297541733	365
bin	0.035708841447733	77
bin	0.1053439804372	4
bin	0.17497911942667	1
bin	0.24461425841613	1
bin	0.3142493974056	0
bin	0.38388453639507	0
bin	0.45351967538453	2
bin	0.523154814374	0
bin	0.59278995336347	0
bin	0.66242509235293	0
bin	0.7320602313424	0
bin	0.80169537033187	0
bin	0.87133050932133	0
bin	0.9409656483108	11
bin	1.0106007873003	9
bin	1.0802359262897	0
bin	1.1498710652792	0
bin	1.2195062042687	1
bin	1.2891413432581	1
bin	1.3587764822476	0
bin	1.4284116212371	0
bin	1.4980467602265	0
bin	1.567681899216	8
scalar scenarioPRJP1.node[19].app 	sentPk:count 	5012
attr interpolationmode  none
attr source  sentPk
attr title  "packets sent, count"
scalar scenarioPRJP1.node[19].app 	sentPk:sum(packetBytes) 	2566144
attr interpolationmode  none
attr source  sentPk
attr title  "packets sent, sum(packetBytes)"
scalar scenarioPRJP1.node[19].udp 	droppedPkBadChecksum:count 	0
attr interpolationmode  none
attr title  "packets dropped (checksum error), count"
scalar scenarioPRJP1.node[19].udp 	droppedPkWrongPort:count 	0
attr interpolationmode  none
attr title  "packets dropped (wrong port), count"
scalar scenarioPRJP1.node[19].udp 	passedUpPk:count 	480
attr interpolationmode  none
attr title  "packets passed up, count"
scalar scenarioPRJP1.node[19].udp 	rcvdPk:count 	480
attr interpolationmode  none
attr source  rcvdPk
attr title  "packets received, count"
scalar scenarioPRJP1.node[19].udp 	rcvdPk:sum(packetBytes) 	249600
attr interpolationmode  none
attr source  rcvdPk
attr title  "packets received, sum(packetBytes)"
scalar scenarioPRJP1.node[19].udp 	sentPk:count 	5012
attr interpolationmode  none
attr source  sentPk
attr title  "packets sent, count"
scalar scenarioPRJP1.node[19].udp 	sentPk:sum(packetBytes) 	2606240
attr interpolationmode  none
attr source  sentPk
attr title  "packets sent, sum(packetBytes)"
scalar scenarioPRJP1.node[19].networkLayer.arp 	failedARPResolution:count 	11
attr title  "ARP failed resolutions, count"
scalar scenarioPRJP1.node[19].networkLayer.arp 	completedARPResolution:count 	1032
attr title  "ARP completed resolutions, count"
scalar scenarioPRJP1.node[19].networkLayer.arp 	initiatedARPResolution:count 	118
attr title  "ARP initiated resolutions, count"
scalar scenarioPRJP1.node[19].networkLayer.arp 	sentReply:count 	125
attr title  "ARP replies sent, count"
scalar scenarioPRJP1.node[19].networkLayer.arp 	sentReq:count 	186
attr title  "ARP request sent, count"
scalar scenarioPRJP1.node[19].mobility 	startTime 	0.1
scalar scenarioPRJP1.node[19].mobility 	totalTime 	1807.1
scalar scenarioPRJP1.node[19].mobility 	stopTime 	1807.3
scalar scenarioPRJP1.node[19].mobility 	minSpeed 	2.4754355588953e-13
scalar scenarioPRJP1.node[19].mobility 	maxSpeed 	19.105632296474
scalar scenarioPRJP1.node[19].mobility 	totalDistance 	19999.861815396
scalar scenarioPRJP1.node[19].mobility 	totalCO2Emission 	5276.048646073
scalar scenarioPRJP1.node[19].wlan.mgmt 	dataQueueLen:max 	2
attr interpolationmode  sample-hold
attr title  "data queue length, max"
scalar scenarioPRJP1.node[19].wlan.mgmt 	dataQueueLen:timeavg 	0
attr interpolationmode  sample-hold
attr title  "data queue length, timeavg"
scalar scenarioPRJP1.node[19].wlan.mgmt 	dropPkByQueue:count 	0
attr interpolationmode  none
attr source  dropPkByQueue
attr title  "packets dropped by queue, count"
scalar scenarioPRJP1.node[19].wlan.mgmt 	dropPkByQueue:sum(packetBytes) 	0
attr interpolationmode  none
attr source  dropPkByQueue
attr title  "packets dropped by queue, sum(packetBytes)"
scalar scenarioPRJP1.node[19].wlan.mac 	"number of received packets" 	3016
scalar scenarioPRJP1.node[19].wlan.mac 	"number of collisions" 	26845
scalar scenarioPRJP1.node[19].wlan.mac 	"number of internal collisions" 	8
scalar scenarioPRJP1.node[19].wlan.mac 	"number of retry for AC 0" 	6394
scalar scenarioPRJP1.node[19].wlan.mac 	"number of retry for AC 1" 	38
scalar scenarioPRJP1.node[19].wlan.mac 	"number of retry for AC 2" 	0
scalar scenarioPRJP1.node[19].wlan.mac 	"number of retry for AC 3" 	0
scalar scenarioPRJP1.node[19].wlan.mac 	"sent and received bits" 	69472992
scalar scenarioPRJP1.node[19].wlan.mac 	"sent packet within AC 0" 	2798
scalar scenarioPRJP1.node[19].wlan.mac 	"sent packet within AC 1" 	129
scalar scenarioPRJP1.node[19].wlan.mac 	"sent packet within AC 2" 	0
scalar scenarioPRJP1.node[19].wlan.mac 	"sent packet within AC 3" 	0
scalar scenarioPRJP1.node[19].wlan.mac 	"sent in TXOP " 	0
scalar scenarioPRJP1.node[19].wlan.mac 	"sentWithoutRetry AC 0" 	2302
scalar scenarioPRJP1.node[19].wlan.mac 	"sentWithoutRetry AC 1" 	120
scalar scenarioPRJP1.node[19].wlan.mac 	"sentWithoutRetry AC 2" 	0
scalar scenarioPRJP1.node[19].wlan.mac 	"sentWithoutRetry AC 3" 	0
scalar scenarioPRJP1.node[19].wlan.mac 	"numGivenUp AC 0" 	825
scalar scenarioPRJP1.node[19].wlan.mac 	"numGivenUp AC 1" 	2
scalar scenarioPRJP1.node[19].wlan.mac 	"numGivenUp AC 2" 	0
scalar scenarioPRJP1.node[19].wlan.mac 	"numGivenUp AC 3" 	0
scalar scenarioPRJP1.node[19].wlan.mac 	"numDropped AC 0" 	0
scalar scenarioPRJP1.node[19].wlan.mac 	"numDropped AC 1" 	0
scalar scenarioPRJP1.node[19].wlan.mac 	"numDropped AC 2" 	0
scalar scenarioPRJP1.node[19].wlan.mac 	"numDropped AC 3" 	0
scalar scenarioPRJP1.node[19].wlan.mac 	rcvdPkFromLL:count 	107932
attr interpolationmode  none
attr source  packetReceivedFromLower
attr title  "packets received from lower layer, count"
scalar scenarioPRJP1.node[19].wlan.mac 	rcvdPkFromLL:sum(packetBytes) 	69522902
attr interpolationmode  none
attr source  packetReceivedFromLower
attr title  "packets received from lower layer, sum(packetBytes)"
scalar scenarioPRJP1.node[19].wlan.mac 	sentDownPk:count 	20207
attr interpolationmode  none
attr source  packetSentToLower
attr title  "packets sent to lower layer, count"
scalar scenarioPRJP1.node[19].wlan.mac 	sentDownPk:sum(packetBytes) 	12822636
attr interpolationmode  none
attr source  packetSentToLower
attr title  "packets sent to lower layer, sum(packetBytes)"
scalar scenarioPRJP1.node[19].wlan.mac 	rcvdPkFromHL:count 	10767
attr interpolationmode  none
attr source  packetReceivedFromUpper
attr title  "packets received from higher layer, count"
scalar scenarioPRJP1.node[19].wlan.mac 	rcvdPkFromHL:sum(packetBytes) 	9155924
attr interpolationmode  none
attr source  packetReceivedFromUpper
attr title  "packets received from higher layer, sum(packetBytes)"
scalar scenarioPRJP1.node[19].wlan.mac 	passedUpPk:count 	37509
attr interpolationmode  none
attr source  packetSentToUpper
attr title  "packets passed to higher layer, count"
scalar scenarioPRJP1.node[19].wlan.mac 	passedUpPk:sum(packetBytes) 	36565164
attr interpolationmode  none
attr source  packetSentToUpper
attr title  "packets passed to higher layer, sum(packetBytes)"
statistic scenarioPRJP1.node[19].wlan.radio 	radioChannel:histogram
field count 1
field mean 3
field stddev -nan
field sum 3
field sqrsum 9
field min 3
field max 3
attr interpolationmode  sample-hold
attr source  radioChannelChanged
attr title  "Radio channel, histogram"
bin	-INF	0
bin	2	0
bin	3	1
bin	4	0
scalar scenarioPRJP1.node[19].wlan.radio 	transmissionState:count 	80828
attr interpolationmode  sample-hold
attr source  transmissionStateChanged
attr title  "Radio transmission state, count"
scalar scenarioPRJP1.node[19].wlan.radio 	receptionState:count 	502923
attr interpolationmode  sample-hold
attr source  receptionStateChanged
attr title  "Radio reception state, count"
scalar scenarioPRJP1.node[19].wlan.radio 	radioMode:count 	40416
attr interpolationmode  sample-hold
attr source  radioModeChanged
attr title  "Radio mode, count"
statistic scenarioPRJP1.node[19].wlan.radio 	symbolErrorRate:histogram
field count 0
field mean -nan
field stddev -nan
field sum 0
field sqrsum 0
field min -nan
field max -nan
attr source  symbolErrorRate
attr title  "Symbol error rate, histogram"
bin	-INF	0
bin	-0.5	0
bin	-0.46666666666667	0
bin	-0.43333333333333	0
bin	-0.4	0
bin	-0.36666666666667	0
bin	-0.33333333333333	0
bin	-0.3	0
bin	-0.26666666666667	0
bin	-0.23333333333333	0
bin	-0.2	0
bin	-0.16666666666667	0
bin	-0.13333333333333	0
bin	-0.1	0
bin	-0.066666666666667	0
bin	-0.033333333333333	0
bin	0	0
bin	0.033333333333333	0
bin	0.066666666666667	0
bin	0.1	0
bin	0.13333333333333	0
bin	0.16666666666667	0
bin	0.2	0
bin	0.23333333333333	0
bin	0.26666666666667	0
bin	0.3	0
bin	0.33333333333333	0
bin	0.36666666666667	0
bin	0.4	0
bin	0.43333333333333	0
bin	0.46666666666667	0
bin	0.5	0
statistic scenarioPRJP1.node[19].wlan.radio 	bitErrorRate:histogram
field count 0
field mean -nan
field stddev -nan
field sum 0
field sqrsum 0
field min -nan
field max -nan
attr source  bitErrorRate
attr title  "Bit error rate, histogram"
bin	-INF	0
bin	-0.5	0
bin	-0.46666666666667	0
bin	-0.43333333333333	0
bin	-0.4	0
bin	-0.36666666666667	0
bin	-0.33333333333333	0
bin	-0.3	0
bin	-0.26666666666667	0
bin	-0.23333333333333	0
bin	-0.2	0
bin	-0.16666666666667	0
bin	-0.13333333333333	0
bin	-0.1	0
bin	-0.066666666666667	0
bin	-0.033333333333333	0
bin	0	0
bin	0.033333333333333	0
bin	0.066666666666667	0
bin	0.1	0
bin	0.13333333333333	0
bin	0.16666666666667	0
bin	0.2	0
bin	0.23333333333333	0
bin	0.26666666666667	0
bin	0.3	0
bin	0.33333333333333	0
bin	0.36666666666667	0
bin	0.4	0
bin	0.43333333333333	0
bin	0.46666666666667	0
bin	0.5	0
statistic scenarioPRJP1.node[19].wlan.radio 	packetErrorRate:histogram
field count 107932
field mean 0.23408557083339
field stddev 0.41328139560526
field sum 25265.323831189
field sqrsum 24349.02573796
field min 0
field max 1
attr source  packetErrorRate
attr title  "Packet error rate, histogram"
bin	-INF	0
bin	-0.5	0
bin	-0.43333333333333	0
bin	-0.36666666666667	0
bin	-0.3	0
bin	-0.23333333333333	0
bin	-0.16666666666667	0
bin	-0.1	0
bin	-0.033333333333333	78987
bin	0.033333333333333	1420
bin	0.1	715
bin	0.16666666666667	527
bin	0.23333333333333	404
bin	0.3	328
bin	0.36666666666667	293
bin	0.43333333333333	284
bin	0.5	248
bin	0.56666666666667	229
bin	0.63333333333333	242
bin	0.7	260
bin	0.76666666666667	280
bin	0.83333333333333	327
bin	0.9	501
bin	0.96666666666667	22887
bin	1.0333333333333	0
bin	1.1	0
bin	1.1666666666667	0
bin	1.2333333333333	0
bin	1.3	0
bin	1.3666666666667	0
bin	1.4333333333333	0
bin	1.5	0
statistic scenarioPRJP1.node[19].wlan.radio 	minSNIR:histogram
field count 107932
field mean 12222.317156716
field stddev 146811.99796857
field sum 1319179135.3587
field sqrsum 2.3424425928818e+15
field min 0.00017027181480847
field max 4357423.8919786
attr source  minSNIR
attr title  "Min SNIR, histogram"
bin	-INF	0
bin	-53784.873601224	0
bin	-46613.539107239	0
bin	-39442.204613255	0
bin	-32270.87011927	0
bin	-25099.535625285	0
bin	-17928.2011313	0
bin	-10756.866637315	0
bin	-3585.5321433305	99812
bin	3585.8023506544	3133
bin	10757.136844639	1149
bin	17928.471338624	403
bin	25099.805832609	314
bin	32271.140326594	234
bin	39442.474820579	299
bin	46613.809314563	261
bin	53785.143808548	118
bin	60956.478302533	141
bin	68127.812796518	145
bin	75299.147290503	296
bin	82470.481784488	212
bin	89641.816278472	59
bin	96813.150772457	33
bin	103984.48526644	39
bin	111155.81976043	37
bin	118327.15425441	61
bin	125498.4887484	24
bin	132669.82324238	21
bin	139841.15773637	25
bin	147012.49223035	51
bin	154183.82672434	19
bin	161355.16121832	1046
scalar scenarioPRJP1.node[19].lo0.lo 	droppedPkBitError:count 	0
attr interpolationmode  none
attr source  dropPkBitError
attr title  "packets dropped/bit error, count"
scalar scenarioPRJP1.node[19].lo0.lo 	droppedPkBitError:sum(packetBytes) 	0
attr interpolationmode  none
attr source  dropPkBitError
attr title  "packets dropped/bit error, sum(packetBytes)"
scalar scenarioPRJP1.node[19].lo0.lo 	rcvdPkFromHL:count 	17
attr interpolationmode  none
attr source  packetReceivedFromUpper
attr title  "packets received from higher layer, count"
scalar scenarioPRJP1.node[19].lo0.lo 	rcvdPkFromHL:sum(packetBytes) 	952
attr interpolationmode  none
attr source  packetReceivedFromUpper
attr title  "packets received from higher layer, sum(packetBytes)"
scalar scenarioPRJP1.node[19].lo0.lo 	passedUpPk:count 	17
attr interpolationmode  none
attr source  packetSentToUpper
attr title  "packets passed to higher layer, count"
scalar scenarioPRJP1.node[19].lo0.lo 	passedUpPk:sum(packetBytes) 	952
attr interpolationmode  none
attr source  packetSentToUpper
attr title  "packets passed to higher layer, sum(packetBytes)"
scalar scenarioPRJP1.node[49].app 	"Total sent" 	5030
scalar scenarioPRJP1.node[49].app 	"Total received" 	462
scalar scenarioPRJP1.node[49].app 	"Total deleted" 	0
scalar scenarioPRJP1.node[49].app 	dropPk:count 	0
attr interpolationmode  none
attr source  dropPk
attr title  "packets dropped, count"
scalar scenarioPRJP1.node[49].app 	dropPk:sum(packetBytes) 	0
attr interpolationmode  none
attr source  dropPk
attr title  "packets dropped, sum(packetBytes)"
scalar scenarioPRJP1.node[49].app 	outOfOrderPk:count 	0
attr interpolationmode  none
attr source  outOfOrderPk
attr title  "packets received out of order, count"
scalar scenarioPRJP1.node[49].app 	outOfOrderPk:sum(packetBytes) 	0
attr interpolationmode  none
attr source  outOfOrderPk
attr title  "packets received out of order, sum(packetBytes)"
scalar scenarioPRJP1.node[49].app 	rcvdPk:count 	462
attr interpolationmode  none
attr source  rcvdPk
attr title  "packets received, count"
scalar scenarioPRJP1.node[49].app 	rcvdPk:sum(packetBytes) 	236544
attr interpolationmode  none
attr source  rcvdPk
attr title  "packets received, sum(packetBytes)"
statistic scenarioPRJP1.node[49].app 	endToEndDelay:histogram
field count 462
field mean 0.11790252084392
field stddev 0.33940390204738
field sum 54.470964629893
field sqrsum 59.527163064883
field min 0.000891025215
field max 2.252711518397
attr interpolationmode  none
attr source  messageAge(rcvdPk)
attr title  "delay, histogram"
attr unit  s
bin	-INF	0
bin	-1.038125231496	0
bin	-0.89958972081933	0
bin	-0.76105421014267	0
bin	-0.622518699466	0
bin	-0.48398318878933	0
bin	-0.34544767811267	0
bin	-0.206912167436	0
bin	-0.068376656759333	390
bin	0.070158853917333	27
bin	0.208694364594	5
bin	0.34722987527067	0
bin	0.48576538594733	5
bin	0.624300896624	0
bin	0.76283640730067	8
bin	0.90137191797733	11
bin	1.039907428654	5
bin	1.1784429393307	3
bin	1.3169784500073	0
bin	1.455513960684	1
bin	1.5940494713607	0
bin	1.7325849820373	2
bin	1.871120492714	2
bin	2.0096560033907	2
bin	2.1481915140673	1
bin	2.286727024744	0
bin	2.4252625354207	0
bin	2.5637980460973	0
bin	2.702333556774	0
bin	2.8408690674507	0
bin	2.9794045781273	0
bin	3.117940088804	0
scalar scenarioPRJP1.node[49].app 	sentPk:count 	5030
attr interpolationmode  none
attr source  sentPk
attr title  "packets sent, count"
scalar scenarioPRJP1.node[49].app 	sentPk:sum(packetBytes) 	2575360
attr interpolationmode  none
attr source  sentPk
attr title  "packets sent, sum(packetBytes)"
scalar scenarioPRJP1.node[49].udp 	droppedPkBadChecksum:count 	0
attr interpolationmode  none
attr title  "packets dropped (checksum error), count"
scalar scenarioPRJP1.node[49].udp 	droppedPkWrongPort:count 	0
attr interpolationmode  none
attr title  "packets dropped (wrong port), count"
scalar scenarioPRJP1.node[49].udp 	passedUpPk:count 	462
attr interpolationmode  none
attr title  "packets passed up, count"
scalar scenarioPRJP1.node[49].udp 	rcvdPk:count 	462
attr interpolationmode  none
attr source  rcvdPk
attr title  "packets received, count"
scalar scenarioPRJP1.node[49].udp 	rcvdPk:sum(packetBytes) 	240240
attr interpolationmode  none
attr source  rcvdPk
attr title  "packets received, sum(packetBytes)"
scalar scenarioPRJP1.node[49].udp 	sentPk:count 	5030
attr interpolationmode  none
attr source  sentPk
attr title  "packets sent, count"
scalar scenarioPRJP1.node[49].udp 	sentPk:sum(packetBytes) 	2615600
attr interpolationmode  none
attr source  sentPk
attr title  "packets sent, sum(packetBytes)"
scalar scenarioPRJP1.node[49].networkLayer.arp 	failedARPResolution:count 	13
attr title  "ARP failed resolutions, count"
scalar scenarioPRJP1.node[49].networkLayer.arp 	completedARPResolution:count 	1036
attr title  "ARP completed resolutions, count"
scalar scenarioPRJP1.node[49].networkLayer.arp 	initiatedARPResolution:count 	132
attr title  "ARP initiated resolutions, count"
scalar scenarioPRJP1.node[49].networkLayer.arp 	sentReply:count 	106
attr title  "ARP replies sent, count"
scalar scenarioPRJP1.node[49].networkLayer.arp 	sentReq:count 	216
attr title  "ARP request sent, count"
scalar scenarioPRJP1.node[49].mobility 	startTime 	4.9
scalar scenarioPRJP1.node[49].mobility 	totalTime 	1825.7
scalar scenarioPRJP1.node[49].mobility 	stopTime 	1830.7
scalar scenarioPRJP1.node[49].mobility 	minSpeed 	2.475500442919e-13
scalar scenarioPRJP1.node[49].mobility 	maxSpeed 	19.094204248567
scalar scenarioPRJP1.node[49].mobility 	totalDistance 	20819.760867033
scalar scenarioPRJP1.node[49].mobility 	totalCO2Emission 	5358.4183621244
scalar scenarioPRJP1.node[49].wlan.mgmt 	dataQueueLen:max 	1
attr interpolationmode  sample-hold
attr title  "data queue length, max"
scalar scenarioPRJP1.node[49].wlan.mgmt 	dataQueueLen:timeavg 	0
attr interpolationmode  sample-hold
attr title  "data queue length, timeavg"
scalar scenarioPRJP1.node[49].wlan.mgmt 	dropPkByQueue:count 	0
attr interpolationmode  none
attr source  dropPkByQueue
attr title  "packets dropped by queue, count"
scalar scenarioPRJP1.node[49].wlan.mgmt 	dropPkByQueue:sum(packetBytes) 	0
attr interpolationmode  none
attr source  dropPkByQueue
attr title  "packets dropped by queue, sum(packetBytes)"
scalar scenarioPRJP1.node[49].wlan.mac 	"number of received packets" 	2808
scalar scenarioPRJP1.node[49].wlan.mac 	"number of collisions" 	24128
scalar scenarioPRJP1.node[49].wlan.mac 	"number of internal collisions" 	3
scalar scenarioPRJP1.node[49].wlan.mac 	"number of retry for AC 0" 	5600
scalar scenarioPRJP1.node[49].wlan.mac 	"number of retry for AC 1" 	15
scalar scenarioPRJP1.node[49].wlan.mac 	"number of retry for AC 2" 	0
scalar scenarioPRJP1.node[49].wlan.mac 	"number of retry for AC 3" 	0
scalar scenarioPRJP1.node[49].wlan.mac 	"sent and received bits" 	66386784
scalar scenarioPRJP1.node[49].wlan.mac 	"sent packet within AC 0" 	2758
scalar scenarioPRJP1.node[49].wlan.mac 	"sent packet within AC 1" 	98
scalar scenarioPRJP1.node[49].wlan.mac 	"sent packet within AC 2" 	0
scalar scenarioPRJP1.node[49].wlan.mac 	"sent packet within AC 3" 	0
scalar scenarioPRJP1.node[49].wlan.mac 	"sent in TXOP " 	0
scalar scenarioPRJP1.node[49].wlan.mac 	"sentWithoutRetry AC 0" 	2260
scalar scenarioPRJP1.node[49].wlan.mac 	"sentWithoutRetry AC 1" 	92
scalar scenarioPRJP1.node[49].wlan.mac 	"sentWithoutRetry AC 2" 	0
scalar scenarioPRJP1.node[49].wlan.mac 	"sentWithoutRetry AC 3" 	0
scalar scenarioPRJP1.node[49].wlan.mac 	"numGivenUp AC 0" 	690
scalar scenarioPRJP1.node[49].wlan.mac 	"numGivenUp AC 1" 	1
scalar scenarioPRJP1.node[49].wlan.mac 	"numGivenUp AC 2" 	0
scalar scenarioPRJP1.node[49].wlan.mac 	"numGivenUp AC 3" 	0
scalar scenarioPRJP1.node[49].wlan.mac 	"numDropped AC 0" 	0
scalar scenarioPRJP1.node[49].wlan.mac 	"numDropped AC 1" 	0
scalar scenarioPRJP1.node[49].wlan.mac 	"numDropped AC 2" 	0
scalar scenarioPRJP1.node[49].wlan.mac 	"numDropped AC 3" 	0
scalar scenarioPRJP1.node[49].wlan.mac 	rcvdPkFromLL:count 	111758
attr interpolationmode  none
attr source  packetReceivedFromLower
attr title  "packets received from lower layer, count"
scalar scenarioPRJP1.node[49].wlan.mac 	rcvdPkFromLL:sum(packetBytes) 	72032994
attr interpolationmode  none
attr source  packetReceivedFromLower
attr title  "packets received from lower layer, sum(packetBytes)"
scalar scenarioPRJP1.node[49].wlan.mac 	sentDownPk:count 	18633
attr interpolationmode  none
attr source  packetSentToLower
attr title  "packets sent to lower layer, count"
scalar scenarioPRJP1.node[49].wlan.mac 	sentDownPk:sum(packetBytes) 	11888764
attr interpolationmode  none
attr source  packetSentToLower
attr title  "packets sent to lower layer, sum(packetBytes)"
scalar scenarioPRJP1.node[49].wlan.mac 	rcvdPkFromHL:count 	10213
attr interpolationmode  none
attr source  packetReceivedFromUpper
attr title  "packets received from higher layer, count"
scalar scenarioPRJP1.node[49].wlan.mac 	rcvdPkFromHL:sum(packetBytes) 	8691272
attr interpolationmode  none
attr source  packetReceivedFromUpper
attr title  "packets received from higher layer, sum(packetBytes)"
scalar scenarioPRJP1.node[49].wlan.mac 	passedUpPk:count 	38961
attr interpolationmode  none
attr source  packetSentToUpper
attr title  "packets passed to higher layer, count"
scalar scenarioPRJP1.node[49].wlan.mac 	passedUpPk:sum(packetBytes) 	38175068
attr interpolationmode  none
attr source  packetSentToUpper
attr title  "packets passed to higher layer, sum(packetBytes)"
statistic scenarioPRJP1.node[49].wlan.radio 	radioChannel:histogram
field count 1
field mean 3
field stddev -nan
field sum 3
field sqrsum 9
field min 3
field max 3
attr interpolationmode  sample-hold
attr source  radioChannelChanged
attr title  "Radio channel, histogram"
bin	-INF	0
bin	2	0
bin	3	1
bin	4	0
scalar scenarioPRJP1.node[49].wlan.radio 	transmissionState:count 	74532
attr interpolationmode  sample-hold
attr source  transmissionStateChanged
attr title  "Radio transmission state, count"
scalar scenarioPRJP1.node[49].wlan.radio 	receptionState:count 	506789
attr interpolationmode  sample-hold
attr source  receptionStateChanged
attr title  "Radio reception state, count"
scalar scenarioPRJP1.node[49].wlan.radio 	radioMode:count 	37268
attr interpolationmode  sample-hold
attr source  radioModeChanged
attr title  "Radio mode, count"
statistic scenarioPRJP1.node[49].wlan.radio 	symbolErrorRate:histogram
field count 0
field mean -nan
field stddev -nan
field sum 0
field sqrsum 0
field min -nan
field max -nan
attr source  symbolErrorRate
attr title  "Symbol error rate, histogram"
bin	-INF	0
bin	-0.5	0
bin	-0.46666666666667	0
bin	-0.43333333333333	0
bin	-0.4	0
bin	-0.36666666666667	0
bin	-0.33333333333333	0
bin	-0.3	0
bin	-0.26666666666667	0
bin	-0.23333333333333	0
bin	-0.2	0
bin	-0.16666666666667	0
bin	-0.13333333333333	0
bin	-0.1	0
bin	-0.066666666666667	0
bin	-0.033333333333333	0
bin	0	0
bin	0.033333333333333	0
bin	0.066666666666667	0
bin	0.1	0
bin	0.13333333333333	0
bin	0.16666666666667	0
bin	0.2	0
bin	0.23333333333333	0
bin	0.26666666666667	0
bin	0.3	0
bin	0.33333333333333	0
bin	0.36666666666667	0
bin	0.4	0
bin	0.43333333333333	0
bin	0.46666666666667	0
bin	0.5	0
statistic scenarioPRJP1.node[49].wlan.radio 	bitErrorRate:histogram
field count 0
field mean -nan
field stddev -nan
field sum 0
field sqrsum 0
field min -nan
field max -nan
attr source  bitErrorRate
attr title  "Bit error rate, histogram"
bin	-INF	0
bin	-0.5	0
bin	-0.46666666666667	0
bin	-0.43333333333333	0
bin	-0.4	0
bin	-0.36666666666667	0
bin	-0.33333333333333	0
bin	-0.3	0
bin	-0.26666666666667	0
bin	-0.23333333333333	0
bin	-0.2	0
bin	-0.16666666666667	0
bin	-0.13333333333333	0
bin	-0.1	0
bin	-0.066666666666667	0
bin	-0.033333333333333	0
bin	0	0
bin	0.033333333333333	0
bin	0.066666666666667	0
bin	0.1	0
bin	0.13333333333333	0
bin	0.16666666666667	0
bin	0.2	0
bin	0.23333333333333	0
bin	0.26666666666667	0
bin	0.3	0
bin	0.33333333333333	0
bin	0.36666666666667	0
bin	0.4	0
bin	0.43333333333333	0
bin	0.46666666666667	0
bin	0.5	0
statistic scenarioPRJP1.node[49].wlan.radio 	packetErrorRate:histogram
field count 111758
field mean 0.20360570228768
field stddev 0.39353016749948
field sum 22754.566076267
field sqrsum 21940.318155979
field min 0
field max 1
attr source  packetErrorRate
attr title  "Packet error rate, histogram"
bin	-INF	0
bin	-0.5	0
bin	-0.46666666666667	0
bin	-0.43333333333333	0
bin	-0.4	0
bin	-0.36666666666667	0
bin	-0.33333333333333	0
bin	-0.3	0
bin	-0.26666666666667	0
bin	-0.23333333333333	0
bin	-0.2	0
bin	-0.16666666666667	0
bin	-0.13333333333333	0
bin	-0.1	0
bin	-0.066666666666667	0
bin	-0.033333333333333	0
bin	0	85626
bin	0.033333333333333	872
bin	0.066666666666667	540
bin	0.1	344
bin	0.13333333333333	320
bin	0.16666666666667	239
bin	0.2	209
bin	0.23333333333333	161
bin	0.26666666666667	181
bin	0.3	151
bin	0.33333333333333	143
bin	0.36666666666667	131
bin	0.4	129
bin	0.43333333333333	101
bin	0.46666666666667	128
bin	0.5	22483
statistic scenarioPRJP1.node[49].wlan.radio 	minSNIR:histogram
field count 111758
field mean 17534.050118984
field stddev 198255.23873134
field sum 1959570373.1974
field sqrsum 4.4269837008472e+15
field min 0.00018325427731287
field max 22956826.878326
attr source  minSNIR
attr title  "Min SNIR, histogram"
bin	-INF	0
bin	-79022.253010398	0
bin	-68483.745897141	0
bin	-57945.238783885	0
bin	-47406.731670629	0
bin	-36868.224557372	0
bin	-26329.717444116	0
bin	-15791.210330859	0
bin	-5252.7032176029	103172
bin	5285.8038956535	3507
bin	15824.31100891	1180
bin	26362.818122166	608
bin	36901.325235423	454
bin	47439.832348679	373
bin	57978.339461936	252
bin	68516.846575192	186
bin	79055.353688448	211
bin	89593.860801705	118
bin	100132.36791496	58
bin	110670.87502822	58
bin	121209.38214147	82
bin	131747.88925473	54
bin	142286.39636799	33
bin	152824.90348124	54
bin	163363.4105945	31
bin	173901.91770776	48
bin	184440.42482101	26
bin	194978.93193427	21
bin	205517.43904753	35
bin	216055.94616078	35
bin	226594.45327404	42
bin	237132.96038729	1120
scalar scenarioPRJP1.node[49].lo0.lo 	droppedPkBitError:count 	0
attr interpolationmode  none
attr source  dropPkBitError
attr title  "packets dropped/bit error, count"
scalar scenarioPRJP1.node[49].lo0.lo 	droppedPkBitError:sum(packetBytes) 	0
attr interpolationmode  none
attr source  dropPkBitError
attr title  "packets dropped/bit error, sum(packetBytes)"
scalar scenarioPRJP1.node[49].lo0.lo 	rcvdPkFromHL:count 	25
attr interpolationmode  none
attr source  packetReceivedFromUpper
attr title  "packets received from higher layer, count"
scalar scenarioPRJP1.node[49].lo0.lo 	rcvdPkFromHL:sum(packetBytes) 	1400
attr interpolationmode  none
attr source  packetReceivedFromUpper
attr title  "packets received from higher layer, sum(packetBytes)"
scalar scenarioPRJP1.node[49].lo0.lo 	passedUpPk:count 	25
attr interpolationmode  none
attr source  packetSentToUpper
attr title  "packets passed to higher layer, count"
scalar scenarioPRJP1.node[49].lo0.lo 	passedUpPk:sum(packetBytes) 	1400
attr interpolationmode  none
attr source  packetSentToUpper
attr title  "packets passed to higher layer, sum(packetBytes)"
scalar scenarioPRJP1.node[51].app 	"Total sent" 	5041
scalar scenarioPRJP1.node[51].app 	"Total received" 	463
scalar scenarioPRJP1.node[51].app 	"Total deleted" 	0
scalar scenarioPRJP1.node[51].app 	dropPk:count 	0
attr interpolationmode  none
attr source  dropPk
attr title  "packets dropped, count"
scalar scenarioPRJP1.node[51].app 	dropPk:sum(packetBytes) 	0
attr interpolationmode  none
attr source  dropPk
attr title  "packets dropped, sum(packetBytes)"
scalar scenarioPRJP1.node[51].app 	outOfOrderPk:count 	0
attr interpolationmode  none
attr source  outOfOrderPk
attr title  "packets received out of order, count"
scalar scenarioPRJP1.node[51].app 	outOfOrderPk:sum(packetBytes) 	0
attr interpolationmode  none
attr source  outOfOrderPk
attr title  "packets received out of order, sum(packetBytes)"
scalar scenarioPRJP1.node[51].app 	rcvdPk:count 	463
attr interpolationmode  none
attr source  rcvdPk
attr title  "packets received, count"
scalar scenarioPRJP1.node[51].app 	rcvdPk:sum(packetBytes) 	237056
attr interpolationmode  none
attr source  rcvdPk
attr title  "packets received, sum(packetBytes)"
statistic scenarioPRJP1.node[51].app 	endToEndDelay:histogram
field count 463
field mean 0.12373134425089
field stddev 0.37948318736049
field sum 57.28761238816
field sqrsum 73.619733433758
field min 0.000891035771
field max 2.565859168626
attr interpolationmode  none
attr source  messageAge(rcvdPk)
attr title  "delay, histogram"
attr unit  s
bin	-INF	0
bin	-1.281592996764	0
bin	-1.1105951227467	0
bin	-0.93959724872933	0
bin	-0.768599374712	0
bin	-0.59760150069467	0
bin	-0.42660362667733	0
bin	-0.25560575266	0
bin	-0.084607878642667	410
bin	0.086389995374667	11
bin	0.257387869392	1
bin	0.42838574340933	5
bin	0.59938361742667	5
bin	0.770381491444	1
bin	0.94137936546133	17
bin	1.1123772394787	1
bin	1.283375113496	1
bin	1.4543729875133	1
bin	1.6253708615307	0
bin	1.796368735548	0
bin	1.9673666095653	8
bin	2.1383644835827	0
bin	2.3093623576	1
bin	2.4803602316173	1
bin	2.6513581056347	0
bin	2.822355979652	0
bin	2.9933538536693	0
bin	3.1643517276867	0
bin	3.335349601704	0
bin	3.5063474757213	0
bin	3.6773453497387	0
bin	3.848343223756	0
scalar scenarioPRJP1.node[51].app 	sentPk:count 	5041
attr interpolationmode  none
attr source  sentPk
attr title  "packets sent, count"
scalar scenarioPRJP1.node[51].app 	sentPk:sum(packetBytes) 	2580992
attr interpolationmode  none
attr source  sentPk
attr title  "packets sent, sum(packetBytes)"
scalar scenarioPRJP1.node[51].udp 	droppedPkBadChecksum:count 	0
attr interpolationmode  none
attr title  "packets dropped (checksum error), count"
scalar scenarioPRJP1.node[51].udp 	droppedPkWrongPort:count 	0
attr interpolationmode  none
attr title  "packets dropped (wrong port), count"
scalar scenarioPRJP1.node[51].udp 	passedUpPk:count 	463
attr interpolationmode  none
attr title  "packets passed up, count"
scalar scenarioPRJP1.node[51].udp 	rcvdPk:count 	463
attr interpolationmode  none
attr source  rcvdPk
attr title  "packets received, count"
scalar scenarioPRJP1.node[51].udp 	rcvdPk:sum(packetBytes) 	240760
attr interpolationmode  none
attr source  rcvdPk
attr title  "packets received, sum(packetBytes)"
scalar scenarioPRJP1.node[51].udp 	sentPk:count 	5041
attr interpolationmode  none
attr source  sentPk
attr title  "packets sent, count"
scalar scenarioPRJP1.node[51].udp 	sentPk:sum(packetBytes) 	2621320
attr interpolationmode  none
attr source  sentPk
attr title  "packets sent, sum(packetBytes)"
scalar scenarioPRJP1.node[51].networkLayer.arp 	failedARPResolution:count 	18
attr title  "ARP failed resolutions, count"
scalar scenarioPRJP1.node[51].networkLayer.arp 	completedARPResolution:count 	1200
attr title  "ARP completed resolutions, count"
scalar scenarioPRJP1.node[51].networkLayer.arp 	initiatedARPResolution:count 	124
attr title  "ARP initiated resolutions, count"
scalar scenarioPRJP1.node[51].networkLayer.arp 	sentReply:count 	76
attr title  "ARP replies sent, count"
scalar scenarioPRJP1.node[51].networkLayer.arp 	sentReq:count 	207
attr title  "ARP request sent, count"
scalar scenarioPRJP1.node[51].mobility 	startTime 	4.9
scalar scenarioPRJP1.node[51].mobility 	totalTime 	1826.2
scalar scenarioPRJP1.node[51].mobility 	stopTime 	1831.2
scalar scenarioPRJP1.node[51].mobility 	minSpeed 	2.4756186669204e-13
scalar scenarioPRJP1.node[51].mobility 	maxSpeed 	17.994501587235
scalar scenarioPRJP1.node[51].mobility 	totalDistance 	16728.947311351
scalar scenarioPRJP1.node[51].mobility 	totalCO2Emission 	4826.1690520265
scalar scenarioPRJP1.node[51].wlan.mgmt 	dataQueueLen:max 	2
attr interpolationmode  sample-hold
attr title  "data queue length, max"
scalar scenarioPRJP1.node[51].wlan.mgmt 	dataQueueLen:timeavg 	0
attr interpolationmode  sample-hold
attr title  "data queue length, timeavg"
scalar scenarioPRJP1.node[51].wlan.mgmt 	dropPkByQueue:count 	0
attr interpolationmode  none
attr source  dropPkByQueue
attr title  "packets dropped by queue, count"
scalar scenarioPRJP1.node[51].wlan.mgmt 	dropPkByQueue:sum(packetBytes) 	0
attr interpolationmode  none
attr source  dropPkByQueue
attr title  "packets dropped by queue, sum(packetBytes)"
scalar scenarioPRJP1.node[51].wlan.mac 	"number of received packets" 	2940
scalar scenarioPRJP1.node[51].wlan.mac 	"number of collisions" 	28249
scalar scenarioPRJP1.node[51].wlan.mac 	"number of internal collisions" 	0
scalar scenarioPRJP1.node[51].wlan.mac 	"number of retry for AC 0" 	5725
scalar scenarioPRJP1.node[51].wlan.mac 	"number of retry for AC 1" 	18
scalar scenarioPRJP1.node[51].wlan.mac 	"number of retry for AC 2" 	0
scalar scenarioPRJP1.node[51].wlan.mac 	"number of retry for AC 3" 	0
scalar scenarioPRJP1.node[51].wlan.mac 	"sent and received bits" 	65491328
scalar scenarioPRJP1.node[51].wlan.mac 	"sent packet within AC 0" 	2932
scalar scenarioPRJP1.node[51].wlan.mac 	"sent packet within AC 1" 	83
scalar scenarioPRJP1.node[51].wlan.mac 	"sent packet within AC 2" 	0
scalar scenarioPRJP1.node[51].wlan.mac 	"sent packet within AC 3" 	0
scalar scenarioPRJP1.node[51].wlan.mac 	"sent in TXOP " 	0
scalar scenarioPRJP1.node[51].wlan.mac 	"sentWithoutRetry AC 0" 	2481
scalar scenarioPRJP1.node[51].wlan.mac 	"sentWithoutRetry AC 1" 	80
scalar scenarioPRJP1.node[51].wlan.mac 	"sentWithoutRetry AC 2" 	0
scalar scenarioPRJP1.node[51].wlan.mac 	"sentWithoutRetry AC 3" 	0
scalar scenarioPRJP1.node[51].wlan.mac 	"numGivenUp AC 0" 	715
scalar scenarioPRJP1.node[51].wlan.mac 	"numGivenUp AC 1" 	2
scalar scenarioPRJP1.node[51].wlan.mac 	"numGivenUp AC 2" 	0
scalar scenarioPRJP1.node[51].wlan.mac 	"numGivenUp AC 3" 	0
scalar scenarioPRJP1.node[51].wlan.mac 	"numDropped AC 0" 	0
scalar scenarioPRJP1.node[51].wlan.mac 	"numDropped AC 1" 	0
scalar scenarioPRJP1.node[51].wlan.mac 	"numDropped AC 2" 	0
scalar scenarioPRJP1.node[51].wlan.mac 	"numDropped AC 3" 	0
scalar scenarioPRJP1.node[51].wlan.mac 	rcvdPkFromLL:count 	121952
attr interpolationmode  none
attr source  packetReceivedFromLower
attr title  "packets received from lower layer, count"
scalar scenarioPRJP1.node[51].wlan.mac 	rcvdPkFromLL:sum(packetBytes) 	77797856
attr interpolationmode  none
attr source  packetReceivedFromLower
attr title  "packets received from lower layer, sum(packetBytes)"
scalar scenarioPRJP1.node[51].wlan.mac 	sentDownPk:count 	18867
attr interpolationmode  none
attr source  packetSentToLower
attr title  "packets sent to lower layer, count"
scalar scenarioPRJP1.node[51].wlan.mac 	sentDownPk:sum(packetBytes) 	11899432
attr interpolationmode  none
attr source  packetSentToLower
attr title  "packets sent to lower layer, sum(packetBytes)"
scalar scenarioPRJP1.node[51].wlan.mac 	rcvdPkFromHL:count 	10184
attr interpolationmode  none
attr source  packetReceivedFromUpper
attr title  "packets received from higher layer, count"
scalar scenarioPRJP1.node[51].wlan.mac 	rcvdPkFromHL:sum(packetBytes) 	8596904
attr interpolationmode  none
attr source  packetReceivedFromUpper
attr title  "packets received from higher layer, sum(packetBytes)"
scalar scenarioPRJP1.node[51].wlan.mac 	passedUpPk:count 	40355
attr interpolationmode  none
attr source  packetSentToUpper
attr title  "packets passed to higher layer, count"
scalar scenarioPRJP1.node[51].wlan.mac 	passedUpPk:sum(packetBytes) 	39316580
attr interpolationmode  none
attr source  packetSentToUpper
attr title  "packets passed to higher layer, sum(packetBytes)"
statistic scenarioPRJP1.node[51].wlan.radio 	radioChannel:histogram
field count 1
field mean 3
field stddev -nan
field sum 3
field sqrsum 9
field min 3
field max 3
attr interpolationmode  sample-hold
attr source  radioChannelChanged
attr title  "Radio channel, histogram"
bin	-INF	0
bin	2	0
bin	3	1
bin	4	0
scalar scenarioPRJP1.node[51].wlan.radio 	transmissionState:count 	75468
attr interpolationmode  sample-hold
attr source  transmissionStateChanged
attr title  "Radio transmission state, count"
scalar scenarioPRJP1.node[51].wlan.radio 	receptionState:count 	557542
attr interpolationmode  sample-hold
attr source  receptionStateChanged
[...]
attr interpolationmode  none
attr source  packetSentToUpper
attr title  "packets passed to higher layer, count"
scalar scenarioPRJP1.node[59].wlan.mac 	passedUpPk:sum(packetBytes) 	42221648
attr interpolationmode  none
attr source  packetSentToUpper
attr title  "packets passed to higher layer, sum(packetBytes)"
statistic scenarioPRJP1.node[59].wlan.radio 	radioChannel:histogram
field count 1
field mean 3
field stddev -nan
field sum 3
field sqrsum 9
field min 3
field max 3
attr interpolationmode  sample-hold
attr source  radioChannelChanged
attr title  "Radio channel, histogram"
bin	-INF	0
bin	2	0
bin	3	1
bin	4	0
scalar scenarioPRJP1.node[59].wlan.radio 	transmissionState:count 	77248
attr interpolationmode  sample-hold
attr source  transmissionStateChanged
attr title  "Radio transmission state, count"
scalar scenarioPRJP1.node[59].wlan.radio 	receptionState:count 	493296
attr interpolationmode  sample-hold
attr source  receptionStateChanged
attr title  "Radio reception state, count"
scalar scenarioPRJP1.node[59].wlan.radio 	radioMode:count 	38626
attr interpolationmode  sample-hold
attr source  radioModeChanged
attr title  "Radio mode, count"
statistic scenarioPRJP1.node[59].wlan.radio 	symbolErrorRate:histogram
field count 0
field mean -nan
field stddev -nan
field sum 0
field sqrsum 0
field min -nan
field max -nan
attr source  symbolErrorRate
attr title  "Symbol error rate, histogram"
bin	-INF	0
bin	-0.5	0
bin	-0.46666666666667	0
bin	-0.43333333333333	0
bin	-0.4	0
bin	-0.36666666666667	0
bin	-0.33333333333333	0
bin	-0.3	0
bin	-0.26666666666667	0
bin	-0.23333333333333	0
bin	-0.2	0
bin	-0.16666666666667	0
bin	-0.13333333333333	0
bin	-0.1	0
bin	-0.066666666666667	0
bin	-0.033333333333333	0
bin	0	0
bin	0.033333333333333	0
bin	0.066666666666667	0
bin	0.1	0
bin	0.13333333333333	0
bin	0.16666666666667	0
bin	0.2	0
bin	0.23333333333333	0
bin	0.26666666666667	0
bin	0.3	0
bin	0.33333333333333	0
bin	0.36666666666667	0
bin	0.4	0
bin	0.43333333333333	0
bin	0.46666666666667	0
bin	0.5	0
statistic scenarioPRJP1.node[59].wlan.radio 	bitErrorRate:histogram
field count 0
field mean -nan
field stddev -nan
field sum 0
field sqrsum 0
field min -nan
field max -nan
attr source  bitErrorRate
attr title  "Bit error rate, histogram"
bin	-INF	0
bin	-0.5	0
bin	-0.46666666666667	0
bin	-0.43333333333333	0
bin	-0.4	0
bin	-0.36666666666667	0
bin	-0.33333333333333	0
bin	-0.3	0
bin	-0.26666666666667	0
bin	-0.23333333333333	0
bin	-0.2	0
bin	-0.16666666666667	0
bin	-0.13333333333333	0
bin	-0.1	0
bin	-0.066666666666667	0
bin	-0.033333333333333	0
bin	0	0
bin	0.033333333333333	0
bin	0.066666666666667	0
bin	0.1	0
bin	0.13333333333333	0
bin	0.16666666666667	0
bin	0.2	0
bin	0.23333333333333	0
bin	0.26666666666667	0
bin	0.3	0
bin	0.33333333333333	0
bin	0.36666666666667	0
bin	0.4	0
bin	0.43333333333333	0
bin	0.46666666666667	0
bin	0.5	0
statistic scenarioPRJP1.node[59].wlan.radio 	packetErrorRate:histogram
field count 124064
field mean 0.21265737667966
field stddev 0.40041957584188
field sum 26383.124780385
field sqrsum 25502.311015078
field min 0
field max 1
attr source  packetErrorRate
attr title  "Packet error rate, histogram"
bin	-INF	0
bin	-0.5	0
bin	-0.43333333333333	0
bin	-0.36666666666667	0
bin	-0.3	0
bin	-0.23333333333333	0
bin	-0.16666666666667	0
bin	-0.1	0
bin	-0.033333333333333	94211
bin	0.033333333333333	1339
bin	0.1	668
bin	0.16666666666667	472
bin	0.23333333333333	385
bin	0.3	322
bin	0.36666666666667	270
bin	0.43333333333333	252
bin	0.5	254
bin	0.56666666666667	239
bin	0.63333333333333	246
bin	0.7	233
bin	0.76666666666667	296
bin	0.83333333333333	335
bin	0.9	474
bin	0.96666666666667	24068
bin	1.0333333333333	0
bin	1.1	0
bin	1.1666666666667	0
bin	1.2333333333333	0
bin	1.3	0
bin	1.3666666666667	0
bin	1.4333333333333	0
bin	1.5	0
statistic scenarioPRJP1.node[59].wlan.radio 	minSNIR:histogram
field count 124064
field mean 19649.049165213
field stddev 175676.34773913
field sum 2437739635.633
field sqrsum 3.8767537984541e+15
field min 0.0005152957339608
field max 3012958.8769377
attr source  minSNIR
attr title  "Min SNIR, histogram"
bin	-INF	0
bin	-65235.346823136	0
bin	-56537.116191973	0
bin	-47838.885560809	0
bin	-39140.654929646	0
bin	-30442.424298483	0
bin	-21744.19366732	0
bin	-13045.963036157	0
bin	-4347.7324049936	112113
bin	4350.4982261695	4190
bin	13048.728857333	1404
bin	21746.959488496	759
bin	30445.190119659	557
bin	39143.420750822	419
bin	47841.651381985	497
bin	56539.882013149	575
bin	65238.112644312	192
bin	73936.343275475	199
bin	82634.573906638	188
bin	91332.804537801	204
bin	100031.03516896	90
bin	108729.26580013	72
bin	117427.49643129	80
bin	126125.72706245	59
bin	134823.95769362	62
bin	143522.18832478	38
bin	152220.41895594	65
bin	160918.64958711	54
bin	169616.88021827	63
bin	178315.11084943	25
bin	187013.3414806	75
bin	195711.57211176	2084
scalar scenarioPRJP1.node[59].lo0.lo 	droppedPkBitError:count 	0
attr interpolationmode  none
attr source  dropPkBitError
attr title  "packets dropped/bit error, count"
scalar scenarioPRJP1.node[59].lo0.lo 	droppedPkBitError:sum(packetBytes) 	0
attr interpolationmode  none
attr source  dropPkBitError
attr title  "packets dropped/bit error, sum(packetBytes)"
scalar scenarioPRJP1.node[59].lo0.lo 	rcvdPkFromHL:count 	19
attr interpolationmode  none
attr source  packetReceivedFromUpper
attr title  "packets received from higher layer, count"
scalar scenarioPRJP1.node[59].lo0.lo 	rcvdPkFromHL:sum(packetBytes) 	1064
attr interpolationmode  none
attr source  packetReceivedFromUpper
attr title  "packets received from higher layer, sum(packetBytes)"
scalar scenarioPRJP1.node[59].lo0.lo 	passedUpPk:count 	19
attr interpolationmode  none
attr source  packetSentToUpper
attr title  "packets passed to higher layer, count"
scalar scenarioPRJP1.node[59].lo0.lo 	passedUpPk:sum(packetBytes) 	1064
attr interpolationmode  none
attr source  packetSentToUpper
attr title  "packets passed to higher layer, sum(packetBytes)"
scalar scenarioPRJP1.node[74].app 	"Total sent" 	5031
scalar scenarioPRJP1.node[74].app 	"Total received" 	433
scalar scenarioPRJP1.node[74].app 	"Total deleted" 	0
scalar scenarioPRJP1.node[74].app 	dropPk:count 	0
attr interpolationmode  none
attr source  dropPk
attr title  "packets dropped, count"
scalar scenarioPRJP1.node[74].app 	dropPk:sum(packetBytes) 	0
attr interpolationmode  none
attr source  dropPk
attr title  "packets dropped, sum(packetBytes)"
scalar scenarioPRJP1.node[74].app 	outOfOrderPk:count 	0
attr interpolationmode  none
attr source  outOfOrderPk
attr title  "packets received out of order, count"
scalar scenarioPRJP1.node[74].app 	outOfOrderPk:sum(packetBytes) 	0
attr interpolationmode  none
attr source  outOfOrderPk
attr title  "packets received out of order, sum(packetBytes)"
scalar scenarioPRJP1.node[74].app 	rcvdPk:count 	433
attr interpolationmode  none
attr source  rcvdPk
attr title  "packets received, count"
scalar scenarioPRJP1.node[74].app 	rcvdPk:sum(packetBytes) 	221696
attr interpolationmode  none
attr source  rcvdPk
attr title  "packets received, sum(packetBytes)"
statistic scenarioPRJP1.node[74].app 	endToEndDelay:histogram
field count 433
field mean 0.090359805965859
field stddev 0.29790185892364
field sum 39.125795983217
field sqrsum 41.873462914972
field min 0.000891011007
field max 2.01907304572
attr interpolationmode  none
attr source  messageAge(rcvdPk)
attr title  "delay, histogram"
attr unit  s
bin	-INF	0
bin	-0.7486729331445	0
bin	-0.64873103369163	0
bin	-0.54878913423877	0
bin	-0.4488472347859	0
bin	-0.34890533533303	0
bin	-0.24896343588017	0
bin	-0.1490215364273	0
bin	-0.049079636974433	375
bin	0.050862262478433	29
bin	0.1508041619313	0
bin	0.25074606138417	0
bin	0.35068796083703	0
bin	0.4506298602899	0
bin	0.55057175974277	1
bin	0.65051365919563	0
bin	0.7504555586485	7
bin	0.85039745810137	0
bin	0.95033935755423	12
bin	1.0502812570071	2
bin	1.15022315646	0
bin	1.2501650559128	1
bin	1.3501069553657	0
bin	1.4500488548186	1
bin	1.5499907542714	0
bin	1.6499326537243	0
bin	1.7498745531772	2
bin	1.84981645263	0
bin	1.9497583520829	3
bin	2.0497002515358	0
bin	2.1496421509886	0
bin	2.2495840504415	0
scalar scenarioPRJP1.node[74].app 	sentPk:count 	5031
attr interpolationmode  none
attr source  sentPk
attr title  "packets sent, count"
scalar scenarioPRJP1.node[74].app 	sentPk:sum(packetBytes) 	2575872
attr interpolationmode  none
attr source  sentPk
attr title  "packets sent, sum(packetBytes)"
scalar scenarioPRJP1.node[74].udp 	droppedPkBadChecksum:count 	0
attr interpolationmode  none
attr title  "packets dropped (checksum error), count"
scalar scenarioPRJP1.node[74].udp 	droppedPkWrongPort:count 	0
attr interpolationmode  none
attr title  "packets dropped (wrong port), count"
scalar scenarioPRJP1.node[74].udp 	passedUpPk:count 	433
attr interpolationmode  none
attr title  "packets passed up, count"
scalar scenarioPRJP1.node[74].udp 	rcvdPk:count 	433
attr interpolationmode  none
attr source  rcvdPk
attr title  "packets received, count"
scalar scenarioPRJP1.node[74].udp 	rcvdPk:sum(packetBytes) 	225160
attr interpolationmode  none
attr source  rcvdPk
attr title  "packets received, sum(packetBytes)"
scalar scenarioPRJP1.node[74].udp 	sentPk:count 	5031
attr interpolationmode  none
attr source  sentPk
attr title  "packets sent, count"
scalar scenarioPRJP1.node[74].udp 	sentPk:sum(packetBytes) 	2616120
attr interpolationmode  none
attr source  sentPk
attr title  "packets sent, sum(packetBytes)"
scalar scenarioPRJP1.node[74].networkLayer.arp 	failedARPResolution:count 	16
attr title  "ARP failed resolutions, count"
scalar scenarioPRJP1.node[74].networkLayer.arp 	completedARPResolution:count 	977
attr title  "ARP completed resolutions, count"
scalar scenarioPRJP1.node[74].networkLayer.arp 	initiatedARPResolution:count 	121
attr title  "ARP initiated resolutions, count"
scalar scenarioPRJP1.node[74].networkLayer.arp 	sentReply:count 	87
attr title  "ARP replies sent, count"
scalar scenarioPRJP1.node[74].networkLayer.arp 	sentReq:count 	188
attr title  "ARP request sent, count"
scalar scenarioPRJP1.node[74].mobility 	startTime 	7.4
scalar scenarioPRJP1.node[74].mobility 	totalTime 	1892.6
scalar scenarioPRJP1.node[74].mobility 	stopTime 	1900
scalar scenarioPRJP1.node[74].mobility 	minSpeed 	2.4754198939258e-13
scalar scenarioPRJP1.node[74].mobility 	maxSpeed 	20.510426597673
scalar scenarioPRJP1.node[74].mobility 	totalDistance 	18765.448755137
scalar scenarioPRJP1.node[74].mobility 	totalCO2Emission 	5495.0281993275
scalar scenarioPRJP1.node[74].wlan.mgmt 	dataQueueLen:max 	2
attr interpolationmode  sample-hold
attr title  "data queue length, max"
scalar scenarioPRJP1.node[74].wlan.mgmt 	dataQueueLen:timeavg 	0
attr interpolationmode  sample-hold
attr title  "data queue length, timeavg"
scalar scenarioPRJP1.node[74].wlan.mgmt 	dropPkByQueue:count 	0
attr interpolationmode  none
attr source  dropPkByQueue
attr title  "packets dropped by queue, count"
scalar scenarioPRJP1.node[74].wlan.mgmt 	dropPkByQueue:sum(packetBytes) 	0
attr interpolationmode  none
attr source  dropPkByQueue
attr title  "packets dropped by queue, sum(packetBytes)"
scalar scenarioPRJP1.node[74].wlan.mac 	"number of received packets" 	2105
scalar scenarioPRJP1.node[74].wlan.mac 	"number of collisions" 	21907
scalar scenarioPRJP1.node[74].wlan.mac 	"number of internal collisions" 	1
scalar scenarioPRJP1.node[74].wlan.mac 	"number of retry for AC 0" 	5146
scalar scenarioPRJP1.node[74].wlan.mac 	"number of retry for AC 1" 	14
scalar scenarioPRJP1.node[74].wlan.mac 	"number of retry for AC 2" 	0
scalar scenarioPRJP1.node[74].wlan.mac 	"number of retry for AC 3" 	0
scalar scenarioPRJP1.node[74].wlan.mac 	"sent and received bits" 	59461632
scalar scenarioPRJP1.node[74].wlan.mac 	"sent packet within AC 0" 	2024
scalar scenarioPRJP1.node[74].wlan.mac 	"sent packet within AC 1" 	109
scalar scenarioPRJP1.node[74].wlan.mac 	"sent packet within AC 2" 	0
scalar scenarioPRJP1.node[74].wlan.mac 	"sent packet within AC 3" 	0
scalar scenarioPRJP1.node[74].wlan.mac 	"sent in TXOP " 	0
scalar scenarioPRJP1.node[74].wlan.mac 	"sentWithoutRetry AC 0" 	1606
scalar scenarioPRJP1.node[74].wlan.mac 	"sentWithoutRetry AC 1" 	106
scalar scenarioPRJP1.node[74].wlan.mac 	"sentWithoutRetry AC 2" 	0
scalar scenarioPRJP1.node[74].wlan.mac 	"sentWithoutRetry AC 3" 	0
scalar scenarioPRJP1.node[74].wlan.mac 	"numGivenUp AC 0" 	640
scalar scenarioPRJP1.node[74].wlan.mac 	"numGivenUp AC 1" 	1
scalar scenarioPRJP1.node[74].wlan.mac 	"numGivenUp AC 2" 	0
scalar scenarioPRJP1.node[74].wlan.mac 	"numGivenUp AC 3" 	0
scalar scenarioPRJP1.node[74].wlan.mac 	"numDropped AC 0" 	0
scalar scenarioPRJP1.node[74].wlan.mac 	"numDropped AC 1" 	0
scalar scenarioPRJP1.node[74].wlan.mac 	"numDropped AC 2" 	0
scalar scenarioPRJP1.node[74].wlan.mac 	"numDropped AC 3" 	0
scalar scenarioPRJP1.node[74].wlan.mac 	rcvdPkFromLL:count 	101038
attr interpolationmode  none
attr source  packetReceivedFromLower
attr title  "packets received from lower layer, count"
scalar scenarioPRJP1.node[74].wlan.mac 	rcvdPkFromLL:sum(packetBytes) 	65011062
attr interpolationmode  none
attr source  packetReceivedFromLower
attr title  "packets received from lower layer, sum(packetBytes)"
scalar scenarioPRJP1.node[74].wlan.mac 	sentDownPk:count 	16251
attr interpolationmode  none
attr source  packetSentToLower
attr title  "packets sent to lower layer, count"
scalar scenarioPRJP1.node[74].wlan.mac 	sentDownPk:sum(packetBytes) 	10751170
attr interpolationmode  none
attr source  packetSentToLower
attr title  "packets sent to lower layer, sum(packetBytes)"
scalar scenarioPRJP1.node[74].wlan.mac 	rcvdPkFromHL:count 	8987
attr interpolationmode  none
attr source  packetReceivedFromUpper
attr title  "packets received from higher layer, count"
scalar scenarioPRJP1.node[74].wlan.mac 	rcvdPkFromHL:sum(packetBytes) 	7797852
attr interpolationmode  none
attr source  packetReceivedFromUpper
attr title  "packets received from higher layer, sum(packetBytes)"
scalar scenarioPRJP1.node[74].wlan.mac 	passedUpPk:count 	35324
attr interpolationmode  none
attr source  packetSentToUpper
attr title  "packets passed to higher layer, count"
scalar scenarioPRJP1.node[74].wlan.mac 	passedUpPk:sum(packetBytes) 	34775696
attr interpolationmode  none
attr source  packetSentToUpper
attr title  "packets passed to higher layer, sum(packetBytes)"
statistic scenarioPRJP1.node[74].wlan.radio 	radioChannel:histogram
field count 1
field mean 3
field stddev -nan
field sum 3
field sqrsum 9
field min 3
field max 3
attr interpolationmode  sample-hold
attr source  radioChannelChanged
attr title  "Radio channel, histogram"
bin	-INF	0
bin	2	0
bin	3	1
bin	4	0
scalar scenarioPRJP1.node[74].wlan.radio 	transmissionState:count 	65004
attr interpolationmode  sample-hold
attr source  transmissionStateChanged
attr title  "Radio transmission state, count"
scalar scenarioPRJP1.node[74].wlan.radio 	receptionState:count 	473650
attr interpolationmode  sample-hold
attr source  receptionStateChanged
attr title  "Radio reception state, count"
scalar scenarioPRJP1.node[74].wlan.radio 	radioMode:count 	32504
attr interpolationmode  sample-hold
attr source  radioModeChanged
attr title  "Radio mode, count"
statistic scenarioPRJP1.node[74].wlan.radio 	symbolErrorRate:histogram
field count 0
field mean -nan
field stddev -nan
field sum 0
field sqrsum 0
field min -nan
field max -nan
attr source  symbolErrorRate
attr title  "Symbol error rate, histogram"
bin	-INF	0
bin	-0.5	0
bin	-0.46666666666667	0
bin	-0.43333333333333	0
bin	-0.4	0
bin	-0.36666666666667	0
bin	-0.33333333333333	0
bin	-0.3	0
bin	-0.26666666666667	0
bin	-0.23333333333333	0
bin	-0.2	0
bin	-0.16666666666667	0
bin	-0.13333333333333	0
bin	-0.1	0
bin	-0.066666666666667	0
bin	-0.033333333333333	0
bin	0	0
bin	0.033333333333333	0
bin	0.066666666666667	0
bin	0.1	0
bin	0.13333333333333	0
bin	0.16666666666667	0
bin	0.2	0
bin	0.23333333333333	0
bin	0.26666666666667	0
bin	0.3	0
bin	0.33333333333333	0
bin	0.36666666666667	0
bin	0.4	0
bin	0.43333333333333	0
bin	0.46666666666667	0
bin	0.5	0
statistic scenarioPRJP1.node[74].wlan.radio 	bitErrorRate:histogram
field count 0
field mean -nan
field stddev -nan
field sum 0
field sqrsum 0
field min -nan
field max -nan
attr source  bitErrorRate
attr title  "Bit error rate, histogram"
bin	-INF	0
bin	-0.5	0
bin	-0.46666666666667	0
bin	-0.43333333333333	0
bin	-0.4	0
bin	-0.36666666666667	0
bin	-0.33333333333333	0
bin	-0.3	0
bin	-0.26666666666667	0
bin	-0.23333333333333	0
bin	-0.2	0
bin	-0.16666666666667	0
bin	-0.13333333333333	0
bin	-0.1	0
bin	-0.066666666666667	0
bin	-0.033333333333333	0
bin	0	0
bin	0.033333333333333	0
bin	0.066666666666667	0
bin	0.1	0
bin	0.13333333333333	0
bin	0.16666666666667	0
bin	0.2	0
bin	0.23333333333333	0
bin	0.26666666666667	0
bin	0.3	0
bin	0.33333333333333	0
bin	0.36666666666667	0
bin	0.4	0
bin	0.43333333333333	0
bin	0.46666666666667	0
bin	0.5	0
statistic scenarioPRJP1.node[74].wlan.radio 	packetErrorRate:histogram
field count 101038
field mean 0.20337980107384
field stddev 0.39301765314064
field sum 20549.088340899
field sqrsum 19785.735069119
field min 0
field max 1
attr source  packetErrorRate
attr title  "Packet error rate, histogram"
bin	-INF	0
bin	-0.5	0
bin	-0.46666666666667	0
bin	-0.43333333333333	0
bin	-0.4	0
bin	-0.36666666666667	0
bin	-0.33333333333333	0
bin	-0.3	0
bin	-0.26666666666667	0
bin	-0.23333333333333	0
bin	-0.2	0
bin	-0.16666666666667	0
bin	-0.13333333333333	0
bin	-0.1	0
bin	-0.066666666666667	0
bin	-0.033333333333333	0
bin	0	77363
bin	0.033333333333333	783
bin	0.066666666666667	530
bin	0.1	329
bin	0.13333333333333	255
bin	0.16666666666667	232
bin	0.2	176
bin	0.23333333333333	155
bin	0.26666666666667	167
bin	0.3	148
bin	0.33333333333333	128
bin	0.36666666666667	118
bin	0.4	104
bin	0.43333333333333	102
bin	0.46666666666667	113
bin	0.5	20335
statistic scenarioPRJP1.node[74].wlan.radio 	minSNIR:histogram
field count 101038
field mean 18448.424067287
field stddev 186459.92940618
field sum 1863991870.9106
field sqrsum 3.5471719354774e+15
field min 0.00016120100816372
field max 3970936.4317921
attr source  minSNIR
attr title  "Min SNIR, histogram"
bin	-INF	0
bin	-65980.304369144	0
bin	-57181.514734798	0
bin	-48382.725100453	0
bin	-39583.935466107	0
bin	-30785.145831762	0
bin	-21986.356197416	0
bin	-13187.56656307	0
bin	-4388.7769287247	92263
bin	4410.0127056209	3163
bin	13208.802339966	1218
bin	22007.591974312	588
bin	30806.381608658	356
bin	39605.171243003	360
bin	48403.960877349	284
bin	57202.750511694	224
bin	66001.54014604	103
bin	74800.329780386	197
bin	83599.119414731	189
bin	92397.909049077	202
bin	101196.69868342	47
bin	109995.48831777	57
bin	118794.27795211	94
bin	127593.06758646	65
bin	136391.8572208	52
bin	145190.64685515	68
bin	153989.4364895	72
bin	162788.22612384	27
bin	171587.01575819	59
bin	180385.80539253	27
bin	189184.59502688	26
bin	197983.38466122	1297
scalar scenarioPRJP1.node[74].lo0.lo 	droppedPkBitError:count 	0
attr interpolationmode  none
attr source  dropPkBitError
attr title  "packets dropped/bit error, count"
scalar scenarioPRJP1.node[74].lo0.lo 	droppedPkBitError:sum(packetBytes) 	0
attr interpolationmode  none
attr source  dropPkBitError
attr title  "packets dropped/bit error, sum(packetBytes)"
scalar scenarioPRJP1.node[74].lo0.lo 	rcvdPkFromHL:count 	10
attr interpolationmode  none
attr source  packetReceivedFromUpper
attr title  "packets received from higher layer, count"
scalar scenarioPRJP1.node[74].lo0.lo 	rcvdPkFromHL:sum(packetBytes) 	560
attr interpolationmode  none
attr source  packetReceivedFromUpper
attr title  "packets received from higher layer, sum(packetBytes)"
scalar scenarioPRJP1.node[74].lo0.lo 	passedUpPk:count 	10
attr interpolationmode  none
attr source  packetSentToUpper
attr title  "packets passed to higher layer, count"
scalar scenarioPRJP1.node[74].lo0.lo 	passedUpPk:sum(packetBytes) 	560
attr interpolationmode  none
attr source  packetSentToUpper
attr title  "packets passed to higher layer, sum(packetBytes)"
