version 2
run OLSR-ETX-FS-75n-17-20150729-15:30:17-8560
attr configname OLSR-ETX-FS-75n
attr datetime 20150729-15:30:17
attr experiment OLSR-ETX-FS-75n
attr inifile omnetpp.ini
attr iterationvars ""
attr iterationvars2 $repetition=17
attr measurement ""
attr network Prj_Part1_propag.scenarioPRJP1
attr processid 8560
attr repetition 17
attr replication #17
attr resultdir results
attr runnumber 17
attr seedset 17

scalar scenarioPRJP1.radioMedium.propagation 	"Arrival computation count" 	39437550
scalar scenarioPRJP1.radioMedium 	"transmission count" 	533038
scalar scenarioPRJP1.radioMedium 	"radio frame send count" 	39437468
scalar scenarioPRJP1.radioMedium 	"reception computation count" 	39175861
scalar scenarioPRJP1.radioMedium 	"interference computation count" 	109307962
scalar scenarioPRJP1.radioMedium 	"reception decision computation count" 	2772183
scalar scenarioPRJP1.radioMedium 	"listening decision computation count" 	67874210
scalar scenarioPRJP1.radioMedium 	"reception cache hit" 	85.257896177063
attr unit  %
scalar scenarioPRJP1.radioMedium 	"interference cache hit" 	50
attr unit  %
scalar scenarioPRJP1.radioMedium 	"noise cache hit" 	0
attr unit  %
scalar scenarioPRJP1.radioMedium 	"snir cache hit" 	0
attr unit  %
scalar scenarioPRJP1.radioMedium 	"reception decision cache hit" 	0
attr unit  %
scalar scenarioPRJP1.node[0].app 	"Total sent" 	2610
scalar scenarioPRJP1.node[0].app 	"Total received" 	146
scalar scenarioPRJP1.node[0].app 	"Total deleted" 	0
scalar scenarioPRJP1.node[0].app 	dropPk:count 	0
attr interpolationmode  none
attr source  dropPk
attr title  "packets dropped, count"
scalar scenarioPRJP1.node[0].app 	dropPk:sum(packetBytes) 	0
attr interpolationmode  none
attr source  dropPk
attr title  "packets dropped, sum(packetBytes)"
scalar scenarioPRJP1.node[0].app 	outOfOrderPk:count 	0
attr interpolationmode  none
attr source  outOfOrderPk
attr title  "packets received out of order, count"
scalar scenarioPRJP1.node[0].app 	outOfOrderPk:sum(packetBytes) 	0
attr interpolationmode  none
attr source  outOfOrderPk
attr title  "packets received out of order, sum(packetBytes)"
scalar scenarioPRJP1.node[0].app 	rcvdPk:count 	146
attr interpolationmode  none
attr source  rcvdPk
attr title  "packets received, count"
scalar scenarioPRJP1.node[0].app 	rcvdPk:sum(packetBytes) 	74752
attr interpolationmode  none
attr source  rcvdPk
attr title  "packets received, sum(packetBytes)"
statistic scenarioPRJP1.node[0].app 	endToEndDelay:histogram
field count 146
field mean 0.04576558453824
field stddev 0.2245587096663
field sum 6.681775342583
field sqrsum 7.6176543969205
field min 0.000945011007
field max 2.038718227891
attr interpolationmode  none
attr source  messageAge(rcvdPk)
attr title  "delay, histogram"
attr unit  s
bin	-INF	0
bin	-1.017941597435	0
bin	-0.88209004964273	0
bin	-0.74623850185047	0
bin	-0.6103869540582	0
bin	-0.47453540626593	0
bin	-0.33868385847367	0
bin	-0.2028323106814	0
bin	-0.066980762889133	141
bin	0.068870784903133	0
bin	0.2047223326954	0
bin	0.34057388048767	0
bin	0.47642542827993	1
bin	0.6122769760722	0
bin	0.74812852386447	0
bin	0.88398007165673	2
bin	1.019831619449	1
bin	1.1556831672413	0
bin	1.2915347150335	0
bin	1.4273862628258	0
bin	1.5632378106181	0
bin	1.6990893584103	0
bin	1.8349409062026	0
bin	1.9707924539949	1
bin	2.1066440017871	0
bin	2.2424955495794	0
bin	2.3783470973717	0
bin	2.5141986451639	0
bin	2.6500501929562	0
bin	2.7859017407485	0
bin	2.9217532885407	0
bin	3.057604836333	0
scalar scenarioPRJP1.node[0].app 	sentPk:count 	2610
attr interpolationmode  none
attr source  sentPk
attr title  "packets sent, count"
scalar scenarioPRJP1.node[0].app 	sentPk:sum(packetBytes) 	1336320
attr interpolationmode  none
attr source  sentPk
attr title  "packets sent, sum(packetBytes)"
scalar scenarioPRJP1.node[0].udp 	droppedPkBadChecksum:count 	0
attr interpolationmode  none
attr title  "packets dropped (checksum error), count"
scalar scenarioPRJP1.node[0].udp 	droppedPkWrongPort:count 	0
attr interpolationmode  none
attr title  "packets dropped (wrong port), count"
scalar scenarioPRJP1.node[0].udp 	passedUpPk:count 	146
attr interpolationmode  none
attr title  "packets passed up, count"
scalar scenarioPRJP1.node[0].udp 	rcvdPk:count 	146
attr interpolationmode  none
attr source  rcvdPk
attr title  "packets received, count"
scalar scenarioPRJP1.node[0].udp 	rcvdPk:sum(packetBytes) 	75920
attr interpolationmode  none
attr source  rcvdPk
attr title  "packets received, sum(packetBytes)"
scalar scenarioPRJP1.node[0].udp 	sentPk:count 	2610
attr interpolationmode  none
attr source  sentPk
attr title  "packets sent, count"
scalar scenarioPRJP1.node[0].udp 	sentPk:sum(packetBytes) 	1357200
attr interpolationmode  none
attr source  sentPk
attr title  "packets sent, sum(packetBytes)"
scalar scenarioPRJP1.node[0].networkLayer.arp 	failedARPResolution:count 	13
attr title  "ARP failed resolutions, count"
scalar scenarioPRJP1.node[0].networkLayer.arp 	completedARPResolution:count 	371
attr title  "ARP completed resolutions, count"
scalar scenarioPRJP1.node[0].networkLayer.arp 	initiatedARPResolution:count 	63
attr title  "ARP initiated resolutions, count"
scalar scenarioPRJP1.node[0].networkLayer.arp 	sentReply:count 	48
attr title  "ARP replies sent, count"
scalar scenarioPRJP1.node[0].networkLayer.arp 	sentReq:count 	99
attr title  "ARP request sent, count"
scalar scenarioPRJP1.node[0].mobility 	startTime 	0.1
scalar scenarioPRJP1.node[0].mobility 	totalTime 	949.9
scalar scenarioPRJP1.node[0].mobility 	stopTime 	950
scalar scenarioPRJP1.node[0].mobility 	minSpeed 	2.4783140698153e-13
scalar scenarioPRJP1.node[0].mobility 	maxSpeed 	18.687205281269
scalar scenarioPRJP1.node[0].mobility 	totalDistance 	10800.412076619
scalar scenarioPRJP1.node[0].mobility 	totalCO2Emission 	2912.8260196493
scalar scenarioPRJP1.node[0].wlan.mgmt 	dataQueueLen:max 	1
attr interpolationmode  sample-hold
attr title  "data queue length, max"
scalar scenarioPRJP1.node[0].wlan.mgmt 	dataQueueLen:timeavg 	0
attr interpolationmode  sample-hold
attr title  "data queue length, timeavg"
scalar scenarioPRJP1.node[0].wlan.mgmt 	dropPkByQueue:count 	0
attr interpolationmode  none
attr source  dropPkByQueue
attr title  "packets dropped by queue, count"
scalar scenarioPRJP1.node[0].wlan.mgmt 	dropPkByQueue:sum(packetBytes) 	0
attr interpolationmode  none
attr source  dropPkByQueue
attr title  "packets dropped by queue, sum(packetBytes)"
scalar scenarioPRJP1.node[0].wlan.mac 	"number of received packets" 	1369
scalar scenarioPRJP1.node[0].wlan.mac 	"number of collisions" 	3548
scalar scenarioPRJP1.node[0].wlan.mac 	"number of internal collisions" 	0
scalar scenarioPRJP1.node[0].wlan.mac 	"number of retry for AC 0" 	2053
scalar scenarioPRJP1.node[0].wlan.mac 	"number of retry for AC 1" 	79
scalar scenarioPRJP1.node[0].wlan.mac 	"number of retry for AC 2" 	0
scalar scenarioPRJP1.node[0].wlan.mac 	"number of retry for AC 3" 	0
scalar scenarioPRJP1.node[0].wlan.mac 	"sent and received bits" 	26631744
scalar scenarioPRJP1.node[0].wlan.mac 	"sent packet within AC 0" 	613
scalar scenarioPRJP1.node[0].wlan.mac 	"sent packet within AC 1" 	53
scalar scenarioPRJP1.node[0].wlan.mac 	"sent packet within AC 2" 	0
scalar scenarioPRJP1.node[0].wlan.mac 	"sent packet within AC 3" 	0
scalar scenarioPRJP1.node[0].wlan.mac 	"sent in TXOP " 	0
scalar scenarioPRJP1.node[0].wlan.mac 	"sentWithoutRetry AC 0" 	581
scalar scenarioPRJP1.node[0].wlan.mac 	"sentWithoutRetry AC 1" 	52
scalar scenarioPRJP1.node[0].wlan.mac 	"sentWithoutRetry AC 2" 	0
scalar scenarioPRJP1.node[0].wlan.mac 	"sentWithoutRetry AC 3" 	0
scalar scenarioPRJP1.node[0].wlan.mac 	"numGivenUp AC 0" 	333
scalar scenarioPRJP1.node[0].wlan.mac 	"numGivenUp AC 1" 	13
scalar scenarioPRJP1.node[0].wlan.mac 	"numGivenUp AC 2" 	0
scalar scenarioPRJP1.node[0].wlan.mac 	"numGivenUp AC 3" 	0
scalar scenarioPRJP1.node[0].wlan.mac 	"numDropped AC 0" 	0
scalar scenarioPRJP1.node[0].wlan.mac 	"numDropped AC 1" 	0
scalar scenarioPRJP1.node[0].wlan.mac 	"numDropped AC 2" 	0
scalar scenarioPRJP1.node[0].wlan.mac 	"numDropped AC 3" 	0
scalar scenarioPRJP1.node[0].wlan.mac 	rcvdPkFromLL:count 	31669
attr interpolationmode  none
attr source  packetReceivedFromLower
attr title  "packets received from lower layer, count"
scalar scenarioPRJP1.node[0].wlan.mac 	rcvdPkFromLL:sum(packetBytes) 	19069292
attr interpolationmode  none
attr source  packetReceivedFromLower
attr title  "packets received from lower layer, sum(packetBytes)"
scalar scenarioPRJP1.node[0].wlan.mac 	sentDownPk:count 	7423
attr interpolationmode  none
attr source  packetSentToLower
attr title  "packets sent to lower layer, count"
scalar scenarioPRJP1.node[0].wlan.mac 	sentDownPk:sum(packetBytes) 	4636726
attr interpolationmode  none
attr source  packetSentToLower
attr title  "packets sent to lower layer, sum(packetBytes)"
scalar scenarioPRJP1.node[0].wlan.mac 	rcvdPkFromHL:count 	3922
attr interpolationmode  none
attr source  packetReceivedFromUpper
attr title  "packets received from higher layer, count"
scalar scenarioPRJP1.node[0].wlan.mac 	rcvdPkFromHL:sum(packetBytes) 	3509172
attr interpolationmode  none
attr source  packetReceivedFromUpper
attr title  "packets received from higher layer, sum(packetBytes)"
scalar scenarioPRJP1.node[0].wlan.mac 	passedUpPk:count 	12216
attr interpolationmode  none
attr source  packetSentToUpper
attr title  "packets passed to higher layer, count"
scalar scenarioPRJP1.node[0].wlan.mac 	passedUpPk:sum(packetBytes) 	12099024
attr interpolationmode  none
attr source  packetSentToUpper
attr title  "packets passed to higher layer, sum(packetBytes)"
statistic scenarioPRJP1.node[0].wlan.radio 	radioChannel:histogram
field count 1
field mean 3
field stddev nan
field sum 3
field sqrsum 9
field min 3
field max 3
attr interpolationmode  sample-hold
attr source  radioChannelChanged
attr title  "Radio channel, histogram"
bin	-INF	0
bin	2	0
bin	3	1
bin	4	0
scalar scenarioPRJP1.node[0].wlan.radio 	transmissionState:count 	29692
attr interpolationmode  sample-hold
attr source  transmissionStateChanged
attr title  "Radio transmission state, count"
scalar scenarioPRJP1.node[0].wlan.radio 	receptionState:count 	78618
attr interpolationmode  sample-hold
attr source  receptionStateChanged
attr title  "Radio reception state, count"
scalar scenarioPRJP1.node[0].wlan.radio 	radioMode:count 	14848
attr interpolationmode  sample-hold
attr source  radioModeChanged
attr title  "Radio mode, count"
statistic scenarioPRJP1.node[0].wlan.radio 	symbolErrorRate:histogram
field count 0
field mean nan
field stddev nan
field sum 0
field sqrsum 0
field min nan
field max nan
attr source  symbolErrorRate
attr title  "Symbol error rate, histogram"
bin	-INF	0
bin	-0.5	0
bin	-0.46666666666667	0
bin	-0.43333333333333	0
bin	-0.4	0
bin	-0.36666666666667	0
bin	-0.33333333333333	0
bin	-0.3	0
bin	-0.26666666666667	0
bin	-0.23333333333333	0
bin	-0.2	0
bin	-0.16666666666667	0
bin	-0.13333333333333	0
bin	-0.1	0
bin	-0.066666666666667	0
bin	-0.033333333333333	0
bin	0	0
bin	0.033333333333333	0
bin	0.066666666666667	0
bin	0.1	0
bin	0.13333333333333	0
bin	0.16666666666667	0
bin	0.2	0
bin	0.23333333333333	0
bin	0.26666666666667	0
bin	0.3	0
bin	0.33333333333333	0
bin	0.36666666666667	0
bin	0.4	0
bin	0.43333333333333	0
bin	0.46666666666667	0
bin	0.5	0
statistic scenarioPRJP1.node[0].wlan.radio 	bitErrorRate:histogram
field count 0
field mean nan
field stddev nan
field sum 0
field sqrsum 0
field min nan
field max nan
attr source  bitErrorRate
attr title  "Bit error rate, histogram"
bin	-INF	0
bin	-0.5	0
bin	-0.46666666666667	0
bin	-0.43333333333333	0
bin	-0.4	0
bin	-0.36666666666667	0
bin	-0.33333333333333	0
bin	-0.3	0
bin	-0.26666666666667	0
bin	-0.23333333333333	0
bin	-0.2	0
bin	-0.16666666666667	0
bin	-0.13333333333333	0
bin	-0.1	0
bin	-0.066666666666667	0
bin	-0.033333333333333	0
bin	0	0
bin	0.033333333333333	0
bin	0.066666666666667	0
bin	0.1	0
bin	0.13333333333333	0
bin	0.16666666666667	0
bin	0.2	0
bin	0.23333333333333	0
bin	0.26666666666667	0
bin	0.3	0
bin	0.33333333333333	0
bin	0.36666666666667	0
bin	0.4	0
bin	0.43333333333333	0
bin	0.46666666666667	0
bin	0.5	0
statistic scenarioPRJP1.node[0].wlan.radio 	packetErrorRate:histogram
field count 31669
field mean 0.10462595728602
field stddev 0.29883570123371
field sum 3313.399441291
field sqrsum 3174.7079092929
field min 0
field max 1
attr source  packetErrorRate
attr title  "Packet error rate, histogram"
bin	-INF	0
bin	-0.5	0
bin	-0.43333333333333	0
bin	-0.36666666666667	0
bin	-0.3	0
bin	-0.23333333333333	0
bin	-0.16666666666667	0
bin	-0.1	0
bin	-0.033333333333333	27787
bin	0.033333333333333	239
bin	0.1	114
bin	0.16666666666667	78
bin	0.23333333333333	53
bin	0.3	42
bin	0.36666666666667	36
bin	0.43333333333333	43
bin	0.5	39
bin	0.56666666666667	33
bin	0.63333333333333	45
bin	0.7	40
bin	0.76666666666667	42
bin	0.83333333333333	48
bin	0.9	87
bin	0.96666666666667	2943
bin	1.0333333333333	0
bin	1.1	0
bin	1.1666666666667	0
bin	1.2333333333333	0
bin	1.3	0
bin	1.3666666666667	0
bin	1.4333333333333	0
bin	1.5	0
statistic scenarioPRJP1.node[0].wlan.radio 	minSNIR:histogram
field count 31669
field mean 6966.1019636698
field stddev 50739.160756996
field sum 220609483.08746
field sqrsum 83064864523521
field min 0.00076320598586586
field max 753239.71923443
attr source  minSNIR
attr title  "Min SNIR, histogram"
bin	-INF	0
bin	-6240.5217352315	0
bin	-5408.2579043871	0
bin	-4575.9940735427	0
bin	-3743.7302426983	0
bin	-2911.4664118539	0
bin	-2079.2025810095	0
bin	-1246.9387501651	0
bin	-414.67491932068	23217
bin	417.58891152372	3205
bin	1249.8527423681	1171
bin	2082.1165732125	526
bin	2914.3804040569	379
bin	3746.6442349013	180
bin	4578.9080657457	165
bin	5411.1718965901	155
bin	6243.4357274345	110
bin	7075.6995582789	120
bin	7907.9633891233	83
bin	8740.2272199677	69
bin	9572.4910508121	70
bin	10404.754881657	93
bin	11237.018712501	79
bin	12069.282543345	89
bin	12901.54637419	42
bin	13733.810205034	146
bin	14566.074035879	79
bin	15398.337866723	46
bin	16230.601697567	24
bin	17062.865528412	70
bin	17895.129359256	52
bin	18727.393190101	1499
scalar scenarioPRJP1.node[0].lo0.lo 	droppedPkBitError:count 	0
attr interpolationmode  none
attr source  dropPkBitError
attr title  "packets dropped/bit error, count"
scalar scenarioPRJP1.node[0].lo0.lo 	droppedPkBitError:sum(packetBytes) 	0
attr interpolationmode  none
attr source  dropPkBitError
attr title  "packets dropped/bit error, sum(packetBytes)"
scalar scenarioPRJP1.node[0].lo0.lo 	rcvdPkFromHL:count 	5
attr interpolationmode  none
attr source  packetReceivedFromUpper
attr title  "packets received from higher layer, count"
scalar scenarioPRJP1.node[0].lo0.lo 	rcvdPkFromHL:sum(packetBytes) 	280
attr interpolationmode  none
attr source  packetReceivedFromUpper
attr title  "packets received from higher layer, sum(packetBytes)"
scalar scenarioPRJP1.node[0].lo0.lo 	passedUpPk:count 	5
attr interpolationmode  none
attr source  packetSentToUpper
attr title  "packets passed to higher layer, count"
scalar scenarioPRJP1.node[0].lo0.lo 	passedUpPk:sum(packetBytes) 	280
attr interpolationmode  none
attr source  packetSentToUpper
attr title  "packets passed to higher layer, sum(packetBytes)"
scalar scenarioPRJP1.node[20].app 	"Total sent" 	2615
scalar scenarioPRJP1.node[20].app 	"Total received" 	156
scalar scenarioPRJP1.node[20].app 	"Total deleted" 	0
scalar scenarioPRJP1.node[20].app 	dropPk:count 	0
attr interpolationmode  none
attr source  dropPk
attr title  "packets dropped, count"
scalar scenarioPRJP1.node[20].app 	dropPk:sum(packetBytes) 	0
attr interpolationmode  none
attr source  dropPk
attr title  "packets dropped, sum(packetBytes)"
scalar scenarioPRJP1.node[20].app 	outOfOrderPk:count 	0
attr interpolationmode  none
attr source  outOfOrderPk
attr title  "packets received out of order, count"
scalar scenarioPRJP1.node[20].app 	outOfOrderPk:sum(packetBytes) 	0
attr interpolationmode  none
attr source  outOfOrderPk
attr title  "packets received out of order, sum(packetBytes)"
scalar scenarioPRJP1.node[20].app 	rcvdPk:count 	156
attr interpolationmode  none
attr source  rcvdPk
attr title  "packets received, count"
scalar scenarioPRJP1.node[20].app 	rcvdPk:sum(packetBytes) 	79872
attr interpolationmode  none
attr source  rcvdPk
attr title  "packets received, sum(packetBytes)"
statistic scenarioPRJP1.node[20].app 	endToEndDelay:histogram
field count 156
field mean 0.048799459740776
field stddev 0.19910002606062
field sum 7.612715719561
field sqrsum 6.5158235727625
field min 0.00094508939
field max 1.121367348669
attr interpolationmode  none
attr source  messageAge(rcvdPk)
attr title  "delay, histogram"
attr unit  s
bin	-INF	0
bin	-0.5592660402495	0
bin	-0.48457122296423	0
bin	-0.40987640567897	0
bin	-0.3351815883937	0
bin	-0.26048677110843	0
bin	-0.18579195382317	0
bin	-0.1110971365379	0
bin	-0.036402319252633	140
bin	0.038292498032633	10
bin	0.1129873153179	0
bin	0.18768213260317	0
bin	0.26237694988843	0
bin	0.3370717671737	0
bin	0.41176658445897	0
bin	0.48646140174423	0
bin	0.5611562190295	0
bin	0.63585103631477	0
bin	0.71054585360003	0
bin	0.7852406708853	0
bin	0.85993548817057	0
bin	0.93463030545583	1
bin	1.0093251227411	4
bin	1.0840199400264	1
bin	1.1587147573116	0
bin	1.2334095745969	0
bin	1.3081043918822	0
bin	1.3827992091674	0
bin	1.4574940264527	0
bin	1.532188843738	0
bin	1.6068836610232	0
bin	1.6815784783085	0
scalar scenarioPRJP1.node[20].app 	sentPk:count 	2615
attr interpolationmode  none
attr source  sentPk
attr title  "packets sent, count"
scalar scenarioPRJP1.node[20].app 	sentPk:sum(packetBytes) 	1338880
attr interpolationmode  none
attr source  sentPk
attr title  "packets sent, sum(packetBytes)"
scalar scenarioPRJP1.node[20].udp 	droppedPkBadChecksum:count 	0
attr interpolationmode  none
attr title  "packets dropped (checksum error), count"
scalar scenarioPRJP1.node[20].udp 	droppedPkWrongPort:count 	0
attr interpolationmode  none
attr title  "packets dropped (wrong port), count"
scalar scenarioPRJP1.node[20].udp 	passedUpPk:count 	156
attr interpolationmode  none
attr title  "packets passed up, count"
scalar scenarioPRJP1.node[20].udp 	rcvdPk:count 	156
attr interpolationmode  none
attr source  rcvdPk
attr title  "packets received, count"
scalar scenarioPRJP1.node[20].udp 	rcvdPk:sum(packetBytes) 	81120
attr interpolationmode  none
attr source  rcvdPk
attr title  "packets received, sum(packetBytes)"
scalar scenarioPRJP1.node[20].udp 	sentPk:count 	2615
attr interpolationmode  none
attr source  sentPk
attr title  "packets sent, count"
scalar scenarioPRJP1.node[20].udp 	sentPk:sum(packetBytes) 	1359800
attr interpolationmode  none
attr source  sentPk
attr title  "packets sent, sum(packetBytes)"
scalar scenarioPRJP1.node[20].networkLayer.arp 	failedARPResolution:count 	13
attr title  "ARP failed resolutions, count"
scalar scenarioPRJP1.node[20].networkLayer.arp 	completedARPResolution:count 	377
attr title  "ARP completed resolutions, count"
scalar scenarioPRJP1.node[20].networkLayer.arp 	initiatedARPResolution:count 	71
attr title  "ARP initiated resolutions, count"
scalar scenarioPRJP1.node[20].networkLayer.arp 	sentReply:count 	36
attr title  "ARP replies sent, count"
scalar scenarioPRJP1.node[20].networkLayer.arp 	sentReq:count 	114
attr title  "ARP request sent, count"
scalar scenarioPRJP1.node[20].mobility 	startTime 	2.5
scalar scenarioPRJP1.node[20].mobility 	totalTime 	947.5
scalar scenarioPRJP1.node[20].mobility 	stopTime 	950
scalar scenarioPRJP1.node[20].mobility 	minSpeed 	2.4754661276236e-13
scalar scenarioPRJP1.node[20].mobility 	maxSpeed 	16.556571107727
scalar scenarioPRJP1.node[20].mobility 	totalDistance 	8402.6335979092
scalar scenarioPRJP1.node[20].mobility 	totalCO2Emission 	2328.3738155677
scalar scenarioPRJP1.node[20].wlan.mgmt 	dataQueueLen:max 	1
attr interpolationmode  sample-hold
attr title  "data queue length, max"
scalar scenarioPRJP1.node[20].wlan.mgmt 	dataQueueLen:timeavg 	0
attr interpolationmode  sample-hold
attr title  "data queue length, timeavg"
scalar scenarioPRJP1.node[20].wlan.mgmt 	dropPkByQueue:count 	0
attr interpolationmode  none
attr source  dropPkByQueue
attr title  "packets dropped by queue, count"
scalar scenarioPRJP1.node[20].wlan.mgmt 	dropPkByQueue:sum(packetBytes) 	0
attr interpolationmode  none
attr source  dropPkByQueue
attr title  "packets dropped by queue, sum(packetBytes)"
scalar scenarioPRJP1.node[20].wlan.mac 	"number of received packets" 	1726
scalar scenarioPRJP1.node[20].wlan.mac 	"number of collisions" 	4619
scalar scenarioPRJP1.node[20].wlan.mac 	"number of internal collisions" 	0
scalar scenarioPRJP1.node[20].wlan.mac 	"number of retry for AC 0" 	2028
scalar scenarioPRJP1.node[20].wlan.mac 	"number of retry for AC 1" 	13
scalar scenarioPRJP1.node[20].wlan.mac 	"number of retry for AC 2" 	0
scalar scenarioPRJP1.node[20].wlan.mac 	"number of retry for AC 3" 	0
scalar scenarioPRJP1.node[20].wlan.mac 	"sent and received bits" 	26538624
scalar scenarioPRJP1.node[20].wlan.mac 	"sent packet within AC 0" 	1039
scalar scenarioPRJP1.node[20].wlan.mac 	"sent packet within AC 1" 	39
scalar scenarioPRJP1.node[20].wlan.mac 	"sent packet within AC 2" 	0
scalar scenarioPRJP1.node[20].wlan.mac 	"sent packet within AC 3" 	0
scalar scenarioPRJP1.node[20].wlan.mac 	"sent in TXOP " 	0
scalar scenarioPRJP1.node[20].wlan.mac 	"sentWithoutRetry AC 0" 	996
scalar scenarioPRJP1.node[20].wlan.mac 	"sentWithoutRetry AC 1" 	38
scalar scenarioPRJP1.node[20].wlan.mac 	"sentWithoutRetry AC 2" 	0
scalar scenarioPRJP1.node[20].wlan.mac 	"sentWithoutRetry AC 3" 	0
scalar scenarioPRJP1.node[20].wlan.mac 	"numGivenUp AC 0" 	322
scalar scenarioPRJP1.node[20].wlan.mac 	"numGivenUp AC 1" 	2
scalar scenarioPRJP1.node[20].wlan.mac 	"numGivenUp AC 2" 	0
scalar scenarioPRJP1.node[20].wlan.mac 	"numGivenUp AC 3" 	0
scalar scenarioPRJP1.node[20].wlan.mac 	"numDropped AC 0" 	0
scalar scenarioPRJP1.node[20].wlan.mac 	"numDropped AC 1" 	0
scalar scenarioPRJP1.node[20].wlan.mac 	"numDropped AC 2" 	0
scalar scenarioPRJP1.node[20].wlan.mac 	"numDropped AC 3" 	0
scalar scenarioPRJP1.node[20].wlan.mac 	rcvdPkFromLL:count 	41126
attr interpolationmode  none
attr source  packetReceivedFromLower
attr title  "packets received from lower layer, count"
scalar scenarioPRJP1.node[20].wlan.mac 	rcvdPkFromLL:sum(packetBytes) 	23234534
attr interpolationmode  none
attr source  packetReceivedFromLower
attr title  "packets received from lower layer, sum(packetBytes)"
scalar scenarioPRJP1.node[20].wlan.mac 	sentDownPk:count 	7863
attr interpolationmode  none
attr source  packetSentToLower
attr title  "packets sent to lower layer, count"
scalar scenarioPRJP1.node[20].wlan.mac 	sentDownPk:sum(packetBytes) 	4622744
attr interpolationmode  none
attr source  packetSentToLower
attr title  "packets sent to lower layer, sum(packetBytes)"
scalar scenarioPRJP1.node[20].wlan.mac 	rcvdPkFromHL:count 	4096
attr interpolationmode  none
attr source  packetReceivedFromUpper
attr title  "packets received from higher layer, count"
scalar scenarioPRJP1.node[20].wlan.mac 	rcvdPkFromHL:sum(packetBytes) 	3492744
attr interpolationmode  none
attr source  packetReceivedFromUpper
attr title  "packets received from higher layer, sum(packetBytes)"
scalar scenarioPRJP1.node[20].wlan.mac 	passedUpPk:count 	13623
attr interpolationmode  none
attr source  packetSentToUpper
attr title  "packets passed to higher layer, count"
scalar scenarioPRJP1.node[20].wlan.mac 	passedUpPk:sum(packetBytes) 	13370676
attr interpolationmode  none
attr source  packetSentToUpper
attr title  "packets passed to higher layer, sum(packetBytes)"
statistic scenarioPRJP1.node[20].wlan.radio 	radioChannel:histogram
field count 1
field mean 3
field stddev nan
field sum 3
field sqrsum 9
field min 3
field max 3
attr interpolationmode  sample-hold
attr source  radioChannelChanged
attr title  "Radio channel, histogram"
bin	-INF	0
bin	2	0
bin	3	1
bin	4	0
scalar scenarioPRJP1.node[20].wlan.radio 	transmissionState:count 	31452
attr interpolationmode  sample-hold
attr source  transmissionStateChanged
attr title  "Radio transmission state, count"
scalar scenarioPRJP1.node[20].wlan.radio 	receptionState:count 	98424
attr interpolationmode  sample-hold
attr source  receptionStateChanged
attr title  "Radio reception state, count"
scalar scenarioPRJP1.node[20].wlan.radio 	radioMode:count 	15728
attr interpolationmode  sample-hold
attr source  radioModeChanged
attr title  "Radio mode, count"
statistic scenarioPRJP1.node[20].wlan.radio 	symbolErrorRate:histogram
field count 0
field mean nan
field stddev nan
field sum 0
field sqrsum 0
field min nan
field max nan
attr source  symbolErrorRate
attr title  "Symbol error rate, histogram"
bin	-INF	0
bin	-0.5	0
bin	-0.46666666666667	0
bin	-0.43333333333333	0
bin	-0.4	0
bin	-0.36666666666667	0
bin	-0.33333333333333	0
bin	-0.3	0
bin	-0.26666666666667	0
bin	-0.23333333333333	0
bin	-0.2	0
bin	-0.16666666666667	0
bin	-0.13333333333333	0
bin	-0.1	0
bin	-0.066666666666667	0
bin	-0.033333333333333	0
bin	0	0
bin	0.033333333333333	0
bin	0.066666666666667	0
bin	0.1	0
bin	0.13333333333333	0
bin	0.16666666666667	0
bin	0.2	0
bin	0.23333333333333	0
bin	0.26666666666667	0
bin	0.3	0
bin	0.33333333333333	0
bin	0.36666666666667	0
bin	0.4	0
bin	0.43333333333333	0
bin	0.46666666666667	0
bin	0.5	0
statistic scenarioPRJP1.node[20].wlan.radio 	bitErrorRate:histogram
field count 0
field mean nan
field stddev nan
field sum 0
field sqrsum 0
field min nan
field max nan
attr source  bitErrorRate
attr title  "Bit error rate, histogram"
bin	-INF	0
bin	-0.5	0
bin	-0.46666666666667	0
bin	-0.43333333333333	0
bin	-0.4	0
bin	-0.36666666666667	0
bin	-0.33333333333333	0
bin	-0.3	0
bin	-0.26666666666667	0
bin	-0.23333333333333	0
bin	-0.2	0
bin	-0.16666666666667	0
bin	-0.13333333333333	0
bin	-0.1	0
bin	-0.066666666666667	0
bin	-0.033333333333333	0
bin	0	0
bin	0.033333333333333	0
bin	0.066666666666667	0
bin	0.1	0
bin	0.13333333333333	0
bin	0.16666666666667	0
bin	0.2	0
bin	0.23333333333333	0
bin	0.26666666666667	0
bin	0.3	0
bin	0.33333333333333	0
bin	0.36666666666667	0
bin	0.4	0
bin	0.43333333333333	0
bin	0.46666666666667	0
bin	0.5	0
statistic scenarioPRJP1.node[20].wlan.radio 	packetErrorRate:histogram
field count 41126
field mean 0.10630094693333
field stddev 0.30007376383162
field sum 4371.7327435803
field sqrsum 4167.7896766925
field min 0
field max 1
attr source  packetErrorRate
attr title  "Packet error rate, histogram"
bin	-INF	0
bin	-0.5	0
bin	-0.46666666666667	0
bin	-0.43333333333333	0
bin	-0.4	0
bin	-0.36666666666667	0
bin	-0.33333333333333	0
bin	-0.3	0
bin	-0.26666666666667	0
bin	-0.23333333333333	0
bin	-0.2	0
bin	-0.16666666666667	0
bin	-0.13333333333333	0
bin	-0.1	0
bin	-0.066666666666667	0
bin	-0.033333333333333	0
bin	0	35958
bin	0.033333333333333	201
bin	0.066666666666667	107
bin	0.1	80
bin	0.13333333333333	79
bin	0.16666666666667	52
bin	0.2	48
bin	0.23333333333333	50
bin	0.26666666666667	42
bin	0.3	29
bin	0.33333333333333	35
bin	0.36666666666667	36
bin	0.4	16
bin	0.43333333333333	38
bin	0.46666666666667	45
bin	0.5	4310
statistic scenarioPRJP1.node[20].wlan.radio 	minSNIR:histogram
field count 41126
field mean 7206.2455161177
field stddev 51859.931790447
field sum 296364053.09586
field sqrsum 1.1273940723213e+14
field min 0.00097841449154528
field max 753239.71923443
attr source  minSNIR
attr title  "Min SNIR, histogram"
bin	-INF	0
bin	-21305.912650771	0
bin	-18462.753620244	0
bin	-15619.594589717	0
bin	-12776.435559189	0
bin	-9933.276528662	0
bin	-7090.1174981347	0
bin	-4246.9584676074	0
bin	-1403.7994370801	34387
bin	1439.3595934471	2122
bin	4282.5186239744	952
bin	7125.6776545017	452
bin	9968.836685029	508
bin	12811.995715556	445
bin	15655.154746084	193
bin	18498.313776611	362
bin	21341.472807138	192
bin	24184.631837665	82
bin	27027.790868193	71
bin	29870.94989872	68
bin	32714.108929247	58
bin	35557.267959774	57
bin	38400.426990302	43
bin	41243.586020829	46
bin	44086.745051356	58
bin	46929.904081884	60
bin	49773.063112411	21
bin	52616.222142938	18
bin	55459.381173465	23
bin	58302.540203993	40
bin	61145.69923452	67
bin	63988.858265047	801
scalar scenarioPRJP1.node[20].lo0.lo 	droppedPkBitError:count 	0
attr interpolationmode  none
attr source  dropPkBitError
attr title  "packets dropped/bit error, count"
scalar scenarioPRJP1.node[20].lo0.lo 	droppedPkBitError:sum(packetBytes) 	0
attr interpolationmode  none
attr source  dropPkBitError
attr title  "packets dropped/bit error, sum(packetBytes)"
scalar scenarioPRJP1.node[20].lo0.lo 	rcvdPkFromHL:count 	8
attr interpolationmode  none
attr source  packetReceivedFromUpper
attr title  "packets received from higher layer, count"
scalar scenarioPRJP1.node[20].lo0.lo 	rcvdPkFromHL:sum(packetBytes) 	448
attr interpolationmode  none
attr source  packetReceivedFromUpper
attr title  "packets received from higher layer, sum(packetBytes)"
scalar scenarioPRJP1.node[20].lo0.lo 	passedUpPk:count 	8
attr interpolationmode  none
attr source  packetSentToUpper
attr title  "packets passed to higher layer, count"
scalar scenarioPRJP1.node[20].lo0.lo 	passedUpPk:sum(packetBytes) 	448
attr interpolationmode  none
attr source  packetSentToUpper
attr title  "packets passed to higher layer, sum(packetBytes)"
scalar scenarioPRJP1.node[40].app 	"Total sent" 	2616
scalar scenarioPRJP1.node[40].app 	"Total received" 	157
scalar scenarioPRJP1.node[40].app 	"Total deleted" 	0
scalar scenarioPRJP1.node[40].app 	dropPk:count 	0
attr interpolationmode  none
attr source  dropPk
attr title  "packets dropped, count"
scalar scenarioPRJP1.node[40].app 	dropPk:sum(packetBytes) 	0
attr interpolationmode  none
attr source  dropPk
attr title  "packets dropped, sum(packetBytes)"
scalar scenarioPRJP1.node[40].app 	outOfOrderPk:count 	0
attr interpolationmode  none
attr source  outOfOrderPk
attr title  "packets received out of order, count"
scalar scenarioPRJP1.node[40].app 	outOfOrderPk:sum(packetBytes) 	0
attr interpolationmode  none
attr source  outOfOrderPk
attr title  "packets received out of order, sum(packetBytes)"
scalar scenarioPRJP1.node[40].app 	rcvdPk:count 	157
attr interpolationmode  none
attr source  rcvdPk
attr title  "packets received, count"
scalar scenarioPRJP1.node[40].app 	rcvdPk:sum(packetBytes) 	80384
attr interpolationmode  none
attr source  rcvdPk
attr title  "packets received, sum(packetBytes)"
statistic scenarioPRJP1.node[40].app 	endToEndDelay:histogram
field count 157
field mean 0.12161490145275
field stddev 0.43914826736166
field sum 19.093539528082
field sqrsum 32.406846241464
field min 0.000945025215
field max 2.999993039656
attr interpolationmode  none
attr source  messageAge(rcvdPk)
attr title  "delay, histogram"
attr unit  s
bin	-INF	0
bin	-1.030788287446	0
bin	-0.89322384451413	0
bin	-0.75565940158227	0
bin	-0.6180949586504	0
bin	-0.48053051571853	0
bin	-0.34296607278667	0
bin	-0.2054016298548	0
bin	-0.067837186922933	145
bin	0.069727256008933	0
bin	0.2072916989408	1
bin	0.34485614187267	0
bin	0.48242058480453	0
bin	0.6199850277364	0
bin	0.75754947066827	1
bin	0.89511391360013	4
bin	1.032678356532	0
bin	1.1702427994639	0
bin	1.3078072423957	0
bin	1.4453716853276	0
bin	1.5829361282595	0
bin	1.7205005711913	2
bin	1.8580650141232	0
bin	1.9956294570551	3
bin	2.1331938999869	0
bin	2.2707583429188	0
bin	2.4083227858507	0
bin	2.5458872287825	0
bin	2.6834516717144	0
bin	2.8210161146463	0
bin	2.9585805575781	1
bin	3.09614500051	0
scalar scenarioPRJP1.node[40].app 	sentPk:count 	2616
attr interpolationmode  none
attr source  sentPk
attr title  "packets sent, count"
scalar scenarioPRJP1.node[40].app 	sentPk:sum(packetBytes) 	1339392
attr interpolationmode  none
attr source  sentPk
attr title  "packets sent, sum(packetBytes)"
scalar scenarioPRJP1.node[40].udp 	droppedPkBadChecksum:count 	0
attr interpolationmode  none
attr title  "packets dropped (checksum error), count"
scalar scenarioPRJP1.node[40].udp 	droppedPkWrongPort:count 	0
attr interpolationmode  none
attr title  "packets dropped (wrong port), count"
scalar scenarioPRJP1.node[40].udp 	passedUpPk:count 	157
attr interpolationmode  none
attr title  "packets passed up, count"
scalar scenarioPRJP1.node[40].udp 	rcvdPk:count 	157
attr interpolationmode  none
attr source  rcvdPk
attr title  "packets received, count"
scalar scenarioPRJP1.node[40].udp 	rcvdPk:sum(packetBytes) 	81640
attr interpolationmode  none
attr source  rcvdPk
attr title  "packets received, sum(packetBytes)"
scalar scenarioPRJP1.node[40].udp 	sentPk:count 	2616
attr interpolationmode  none
attr source  sentPk
attr title  "packets sent, count"
scalar scenarioPRJP1.node[40].udp 	sentPk:sum(packetBytes) 	1360320
attr interpolationmode  none
attr source  sentPk
attr title  "packets sent, sum(packetBytes)"
scalar scenarioPRJP1.node[40].networkLayer.arp 	failedARPResolution:count 	9
attr title  "ARP failed resolutions, count"
scalar scenarioPRJP1.node[40].networkLayer.arp 	completedARPResolution:count 	336
attr title  "ARP completed resolutions, count"
scalar scenarioPRJP1.node[40].networkLayer.arp 	initiatedARPResolution:count 	51
attr title  "ARP initiated resolutions, count"
scalar scenarioPRJP1.node[40].networkLayer.arp 	sentReply:count 	54
attr title  "ARP replies sent, count"
scalar scenarioPRJP1.node[40].networkLayer.arp 	sentReq:count 	79
attr title  "ARP request sent, count"
scalar scenarioPRJP1.node[40].mobility 	startTime 	4.9
scalar scenarioPRJP1.node[40].mobility 	totalTime 	945.1
scalar scenarioPRJP1.node[40].mobility 	stopTime 	950
scalar scenarioPRJP1.node[40].mobility 	minSpeed 	2.475768207908e-13
scalar scenarioPRJP1.node[40].mobility 	maxSpeed 	16.546857121859
scalar scenarioPRJP1.node[40].mobility 	totalDistance 	8985.6892747727
scalar scenarioPRJP1.node[40].mobility 	totalCO2Emission 	2341.720567832
scalar scenarioPRJP1.node[40].wlan.mgmt 	dataQueueLen:max 	0
attr interpolationmode  sample-hold
attr title  "data queue length, max"
scalar scenarioPRJP1.node[40].wlan.mgmt 	dataQueueLen:timeavg 	0
attr interpolationmode  sample-hold
attr title  "data queue length, timeavg"
scalar scenarioPRJP1.node[40].wlan.mgmt 	dropPkByQueue:count 	0
attr interpolationmode  none
attr source  dropPkByQueue
attr title  "packets dropped by queue, count"
scalar scenarioPRJP1.node[40].wlan.mgmt 	dropPkByQueue:sum(packetBytes) 	0
attr interpolationmode  none
attr source  dropPkByQueue
attr title  "packets dropped by queue, sum(packetBytes)"
scalar scenarioPRJP1.node[40].wlan.mac 	"number of received packets" 	902
scalar scenarioPRJP1.node[40].wlan.mac 	"number of collisions" 	3306
scalar scenarioPRJP1.node[40].wlan.mac 	"number of internal collisions" 	0
scalar scenarioPRJP1.node[40].wlan.mac 	"number of retry for AC 0" 	1786
scalar scenarioPRJP1.node[40].wlan.mac 	"number of retry for AC 1" 	54
scalar scenarioPRJP1.node[40].wlan.mac 	"number of retry for AC 2" 	0
scalar scenarioPRJP1.node[40].wlan.mac 	"number of retry for AC 3" 	0
scalar scenarioPRJP1.node[40].wlan.mac 	"sent and received bits" 	21627200
scalar scenarioPRJP1.node[40].wlan.mac 	"sent packet within AC 0" 	361
scalar scenarioPRJP1.node[40].wlan.mac 	"sent packet within AC 1" 	25
scalar scenarioPRJP1.node[40].wlan.mac 	"sent packet within AC 2" 	0
scalar scenarioPRJP1.node[40].wlan.mac 	"sent packet within AC 3" 	0
scalar scenarioPRJP1.node[40].wlan.mac 	"sent in TXOP " 	0
scalar scenarioPRJP1.node[40].wlan.mac 	"sentWithoutRetry AC 0" 	334
scalar scenarioPRJP1.node[40].wlan.mac 	"sentWithoutRetry AC 1" 	25
scalar scenarioPRJP1.node[40].wlan.mac 	"sentWithoutRetry AC 2" 	0
scalar scenarioPRJP1.node[40].wlan.mac 	"sentWithoutRetry AC 3" 	0
scalar scenarioPRJP1.node[40].wlan.mac 	"numGivenUp AC 0" 	286
scalar scenarioPRJP1.node[40].wlan.mac 	"numGivenUp AC 1" 	9
scalar scenarioPRJP1.node[40].wlan.mac 	"numGivenUp AC 2" 	0
scalar scenarioPRJP1.node[40].wlan.mac 	"numGivenUp AC 3" 	0
scalar scenarioPRJP1.node[40].wlan.mac 	"numDropped AC 0" 	0
scalar scenarioPRJP1.node[40].wlan.mac 	"numDropped AC 1" 	0
scalar scenarioPRJP1.node[40].wlan.mac 	"numDropped AC 2" 	0
scalar scenarioPRJP1.node[40].wlan.mac 	"numDropped AC 3" 	0
scalar scenarioPRJP1.node[40].wlan.mac 	rcvdPkFromLL:count 	29189
attr interpolationmode  none
attr source  packetReceivedFromLower
attr title  "packets received from lower layer, count"
scalar scenarioPRJP1.node[40].wlan.mac 	rcvdPkFromLL:sum(packetBytes) 	18030950
attr interpolationmode  none
attr source  packetReceivedFromLower
attr title  "packets received from lower layer, sum(packetBytes)"
scalar scenarioPRJP1.node[40].wlan.mac 	sentDownPk:count 	5874
attr interpolationmode  none
attr source  packetSentToLower
attr title  "packets sent to lower layer, count"
scalar scenarioPRJP1.node[40].wlan.mac 	sentDownPk:sum(packetBytes) 	3835424
attr interpolationmode  none
attr source  packetSentToLower
attr title  "packets sent to lower layer, sum(packetBytes)"
scalar scenarioPRJP1.node[40].wlan.mac 	rcvdPkFromHL:count 	3132
attr interpolationmode  none
attr source  packetReceivedFromUpper
attr title  "packets received from higher layer, count"
scalar scenarioPRJP1.node[40].wlan.mac 	rcvdPkFromHL:sum(packetBytes) 	2857700
attr interpolationmode  none
attr source  packetReceivedFromUpper
attr title  "packets received from higher layer, sum(packetBytes)"
scalar scenarioPRJP1.node[40].wlan.mac 	passedUpPk:count 	11347
attr interpolationmode  none
attr source  packetSentToUpper
attr title  "packets passed to higher layer, count"
scalar scenarioPRJP1.node[40].wlan.mac 	passedUpPk:sum(packetBytes) 	11353216
attr interpolationmode  none
attr source  packetSentToUpper
attr title  "packets passed to higher layer, sum(packetBytes)"
statistic scenarioPRJP1.node[40].wlan.radio 	radioChannel:histogram
field count 1
field mean 3
field stddev nan
field sum 3
field sqrsum 9
field min 3
field max 3
attr interpolationmode  sample-hold
attr source  radioChannelChanged
attr title  "Radio channel, histogram"
bin	-INF	0
bin	2	0
bin	3	1
bin	4	0
scalar scenarioPRJP1.node[40].wlan.radio 	transmissionState:count 	23496
attr interpolationmode  sample-hold
attr source  transmissionStateChanged
attr title  "Radio transmission state, count"
scalar scenarioPRJP1.node[40].wlan.radio 	receptionState:count 	70560
attr interpolationmode  sample-hold
attr source  receptionStateChanged
attr title  "Radio reception state, count"
scalar scenarioPRJP1.node[40].wlan.radio 	radioMode:count 	11750
attr interpolationmode  sample-hold
attr source  radioModeChanged
attr title  "Radio mode, count"
statistic scenarioPRJP1.node[40].wlan.radio 	symbolErrorRate:histogram
field count 0
field mean nan
field stddev nan
field sum 0
field sqrsum 0
field min nan
field max nan
attr source  symbolErrorRate
attr title  "Symbol error rate, histogram"
bin	-INF	0
bin	-0.5	0
bin	-0.46666666666667	0
bin	-0.43333333333333	0
bin	-0.4	0
bin	-0.36666666666667	0
bin	-0.33333333333333	0
bin	-0.3	0
bin	-0.26666666666667	0
bin	-0.23333333333333	0
bin	-0.2	0
bin	-0.16666666666667	0
bin	-0.13333333333333	0
bin	-0.1	0
bin	-0.066666666666667	0
bin	-0.033333333333333	0
bin	0	0
bin	0.033333333333333	0
bin	0.066666666666667	0
bin	0.1	0
bin	0.13333333333333	0
bin	0.16666666666667	0
bin	0.2	0
bin	0.23333333333333	0
bin	0.26666666666667	0
bin	0.3	0
bin	0.33333333333333	0
bin	0.36666666666667	0
bin	0.4	0
bin	0.43333333333333	0
bin	0.46666666666667	0
bin	0.5	0
statistic scenarioPRJP1.node[40].wlan.radio 	bitErrorRate:histogram
field count 0
field mean nan
field stddev nan
field sum 0
field sqrsum 0
field min nan
field max nan
attr source  bitErrorRate
attr title  "Bit error rate, histogram"
bin	-INF	0
bin	-0.5	0
bin	-0.46666666666667	0
bin	-0.43333333333333	0
bin	-0.4	0
bin	-0.36666666666667	0
bin	-0.33333333333333	0
bin	-0.3	0
bin	-0.26666666666667	0
bin	-0.23333333333333	0
bin	-0.2	0
bin	-0.16666666666667	0
bin	-0.13333333333333	0
bin	-0.1	0
bin	-0.066666666666667	0
bin	-0.033333333333333	0
bin	0	0
bin	0.033333333333333	0
bin	0.066666666666667	0
bin	0.1	0
bin	0.13333333333333	0
bin	0.16666666666667	0
bin	0.2	0
bin	0.23333333333333	0
bin	0.26666666666667	0
bin	0.3	0
bin	0.33333333333333	0
bin	0.36666666666667	0
bin	0.4	0
bin	0.43333333333333	0
bin	0.46666666666667	0
bin	0.5	0
statistic scenarioPRJP1.node[40].wlan.radio 	packetErrorRate:histogram
field count 29189
field mean 0.10679768256794
field stddev 0.30077946686867
field sum 3117.3175564756
field sqrsum 2973.5106719499
field min 0
field max 1
attr source  packetErrorRate
attr title  "Packet error rate, histogram"
bin	-INF	0
bin	-0.5	0
bin	-0.46666666666667	0
bin	-0.43333333333333	0
bin	-0.4	0
bin	-0.36666666666667	0
bin	-0.33333333333333	0
bin	-0.3	0
bin	-0.26666666666667	0
bin	-0.23333333333333	0
bin	-0.2	0
bin	-0.16666666666667	0
bin	-0.13333333333333	0
bin	-0.1	0
bin	-0.066666666666667	0
bin	-0.033333333333333	0
bin	0	25482
bin	0.033333333333333	133
bin	0.066666666666667	104
bin	0.1	69
bin	0.13333333333333	60
bin	0.16666666666667	40
bin	0.2	37
bin	0.23333333333333	31
bin	0.26666666666667	26
bin	0.3	26
bin	0.33333333333333	28
bin	0.36666666666667	25
bin	0.4	16
bin	0.43333333333333	14
bin	0.46666666666667	20
bin	0.5	3078
statistic scenarioPRJP1.node[40].wlan.radio 	minSNIR:histogram
field count 29189
field mean 7552.9694946512
field stddev 54223.389162702
field sum 220463626.57937
field sqrsum 87483010157911
field min 0.0016062420570489
field max 753239.71923443
attr source  minSNIR
attr title  "Min SNIR, histogram"
bin	-INF	0
bin	-18912.290183343	0
bin	-16386.278473546	0
bin	-13860.266763748	0
bin	-11334.25505395	0
bin	-8808.2433441519	0
bin	-6282.2316343541	0
bin	-3756.2199245562	0
bin	-1230.2082147583	24047
bin	1295.8034950395	1811
bin	3821.8152048374	678
bin	6347.8269146353	400
bin	8873.8386244331	271
bin	11399.850334231	244
bin	13925.862044029	255
bin	16451.873753827	121
bin	18977.885463625	121
bin	21503.897173422	118
bin	24029.90888322	82
bin	26555.920593018	44
bin	29081.932302816	33
bin	31607.944012614	69
bin	34133.955722412	20
bin	36659.96743221	60
bin	39185.979142008	36
bin	41711.990851805	23
bin	44238.002561603	16
bin	46764.014271401	21
bin	49290.025981199	21
bin	51816.037690997	6
bin	54342.049400795	9
bin	56868.061110593	683
scalar scenarioPRJP1.node[40].lo0.lo 	droppedPkBitError:count 	0
attr interpolationmode  none
attr source  dropPkBitError
attr title  "packets dropped/bit error, count"
scalar scenarioPRJP1.node[40].lo0.lo 	droppedPkBitError:sum(packetBytes) 	0
attr interpolationmode  none
attr source  dropPkBitError
attr title  "packets dropped/bit error, sum(packetBytes)"
scalar scenarioPRJP1.node[40].lo0.lo 	rcvdPkFromHL:count 	3
attr interpolationmode  none
attr source  packetReceivedFromUpper
attr title  "packets received from higher layer, count"
scalar scenarioPRJP1.node[40].lo0.lo 	rcvdPkFromHL:sum(packetBytes) 	168
attr interpolationmode  none
attr source  packetReceivedFromUpper
attr title  "packets received from higher layer, sum(packetBytes)"
scalar scenarioPRJP1.node[40].lo0.lo 	passedUpPk:count 	3
attr interpolationmode  none
attr source  packetSentToUpper
attr title  "packets passed to higher layer, count"
scalar scenarioPRJP1.node[40].lo0.lo 	passedUpPk:sum(packetBytes) 	168
attr interpolationmode  none
attr source  packetSentToUpper
attr title  "packets passed to higher layer, sum(packetBytes)"
scalar scenarioPRJP1.node[71].app 	"Total sent" 	2608
scalar scenarioPRJP1.node[71].app 	"Total received" 	164
scalar scenarioPRJP1.node[71].app 	"Total deleted" 	0
scalar scenarioPRJP1.node[71].app 	dropPk:count 	0
attr interpolationmode  none
attr source  dropPk
attr title  "packets dropped, count"
scalar scenarioPRJP1.node[71].app 	dropPk:sum(packetBytes) 	0
attr interpolationmode  none
attr source  dropPk
attr title  "packets dropped, sum(packetBytes)"
scalar scenarioPRJP1.node[71].app 	outOfOrderPk:count 	0
attr interpolationmode  none
attr source  outOfOrderPk
attr title  "packets received out of order, count"
scalar scenarioPRJP1.node[71].app 	outOfOrderPk:sum(packetBytes) 	0
attr interpolationmode  none
attr source  outOfOrderPk
attr title  "packets received out of order, sum(packetBytes)"
scalar scenarioPRJP1.node[71].app 	rcvdPk:count 	164
attr interpolationmode  none
attr source  rcvdPk
attr title  "packets received, count"
scalar scenarioPRJP1.node[71].app 	rcvdPk:sum(packetBytes) 	83968
attr interpolationmode  none
attr source  rcvdPk
attr title  "packets received, sum(packetBytes)"
statistic scenarioPRJP1.node[71].app 	endToEndDelay:histogram
field count 164
field mean 0.048437060635896
field stddev 0.18728958482794
field sum 7.943677944287
field sqrsum 6.1023827496179
field min 0.000945011007
field max 1.055832991383
attr interpolationmode  none
attr source  messageAge(rcvdPk)
attr title  "delay, histogram"
attr unit  s
bin	-INF	0
bin	-0.506437383553	0
bin	-0.43878639761167	0
bin	-0.37113541167033	0
bin	-0.303484425729	0
bin	-0.23583343978767	0
bin	-0.16818245384633	0
bin	-0.100531467905	0
bin	-0.032880481963667	145
bin	0.034770503977667	12
bin	0.102421489919	0
bin	0.17007247586033	0
bin	0.23772346180167	0
bin	0.305374447743	0
bin	0.37302543368433	0
bin	0.44067641962567	0
bin	0.508327405567	1
bin	0.57597839150833	0
bin	0.64362937744967	0
bin	0.711280363391	1
bin	0.77893134933233	0
bin	0.84658233527367	0
bin	0.914233321215	0
bin	0.98188430715633	4
bin	1.0495352930977	1
bin	1.117186279039	0
bin	1.1848372649803	0
bin	1.2524882509217	0
bin	1.320139236863	0
bin	1.3877902228043	0
bin	1.4554412087457	0
bin	1.523092194687	0
scalar scenarioPRJP1.node[71].app 	sentPk:count 	2608
attr interpolationmode  none
attr source  sentPk
attr title  "packets sent, count"
scalar scenarioPRJP1.node[71].app 	sentPk:sum(packetBytes) 	1335296
attr interpolationmode  none
attr source  sentPk
attr title  "packets sent, sum(packetBytes)"
scalar scenarioPRJP1.node[71].udp 	droppedPkBadChecksum:count 	0
attr interpolationmode  none
attr title  "packets dropped (checksum error), count"
scalar scenarioPRJP1.node[71].udp 	droppedPkWrongPort:count 	0
attr interpolationmode  none
attr title  "packets dropped (wrong port), count"
scalar scenarioPRJP1.node[71].udp 	passedUpPk:count 	164
attr interpolationmode  none
attr title  "packets passed up, count"
scalar scenarioPRJP1.node[71].udp 	rcvdPk:count 	164
attr interpolationmode  none
attr source  rcvdPk
attr title  "packets received, count"
scalar scenarioPRJP1.node[71].udp 	rcvdPk:sum(packetBytes) 	85280
attr interpolationmode  none
attr source  rcvdPk
attr title  "packets received, sum(packetBytes)"
scalar scenarioPRJP1.node[71].udp 	sentPk:count 	2608
attr interpolationmode  none
attr source  sentPk
attr title  "packets sent, count"
scalar scenarioPRJP1.node[71].udp 	sentPk:sum(packetBytes) 	1356160
attr interpolationmode  none
attr source  sentPk
attr title  "packets sent, sum(packetBytes)"
scalar scenarioPRJP1.node[71].networkLayer.arp 	failedARPResolution:count 	6
attr title  "ARP failed resolutions, count"
scalar scenarioPRJP1.node[71].networkLayer.arp 	completedARPResolution:count 	327
attr title  "ARP completed resolutions, count"
scalar scenarioPRJP1.node[71].networkLayer.arp 	initiatedARPResolution:count 	52
attr title  "ARP initiated resolutions, count"
scalar scenarioPRJP1.node[71].networkLayer.arp 	sentReply:count 	42
attr title  "ARP replies sent, count"
scalar scenarioPRJP1.node[71].networkLayer.arp 	sentReq:count 	77
attr title  "ARP request sent, count"
scalar scenarioPRJP1.node[71].mobility 	startTime 	7.4
scalar scenarioPRJP1.node[71].mobility 	totalTime 	942.6
scalar scenarioPRJP1.node[71].mobility 	stopTime 	950
scalar scenarioPRJP1.node[71].mobility 	minSpeed 	2.4754861732697e-13
scalar scenarioPRJP1.node[71].mobility 	maxSpeed 	15.678968850147
scalar scenarioPRJP1.node[71].mobility 	totalDistance 	9293.4887698912
scalar scenarioPRJP1.node[71].mobility 	totalCO2Emission 	2231.9401336777
scalar scenarioPRJP1.node[71].wlan.mgmt 	dataQueueLen:max 	0
attr interpolationmode  sample-hold
attr title  "data queue length, max"
scalar scenarioPRJP1.node[71].wlan.mgmt 	dataQueueLen:timeavg 	0
attr interpolationmode  sample-hold
attr title  "data queue length, timeavg"
scalar scenarioPRJP1.node[71].wlan.mgmt 	dropPkByQueue:count 	0
attr interpolationmode  none
attr source  dropPkByQueue
attr title  "packets dropped by queue, count"
scalar scenarioPRJP1.node[71].wlan.mgmt 	dropPkByQueue:sum(packetBytes) 	0
attr interpolationmode  none
attr source  dropPkByQueue
attr title  "packets dropped by queue, sum(packetBytes)"
scalar scenarioPRJP1.node[71].wlan.mac 	"number of received packets" 	1313
scalar scenarioPRJP1.node[71].wlan.mac 	"number of collisions" 	3953
scalar scenarioPRJP1.node[71].wlan.mac 	"number of internal collisions" 	1
scalar scenarioPRJP1.node[71].wlan.mac 	"number of retry for AC 0" 	1908
scalar scenarioPRJP1.node[71].wlan.mac 	"number of retry for AC 1" 	30
scalar scenarioPRJP1.node[71].wlan.mac 	"number of retry for AC 2" 	0
scalar scenarioPRJP1.node[71].wlan.mac 	"number of retry for AC 3" 	0
scalar scenarioPRJP1.node[71].wlan.mac 	"sent and received bits" 	25029792
scalar scenarioPRJP1.node[71].wlan.mac 	"sent packet within AC 0" 	614
scalar scenarioPRJP1.node[71].wlan.mac 	"sent packet within AC 1" 	31
scalar scenarioPRJP1.node[71].wlan.mac 	"sent packet within AC 2" 	0
scalar scenarioPRJP1.node[71].wlan.mac 	"sent packet within AC 3" 	0
scalar scenarioPRJP1.node[71].wlan.mac 	"sent in TXOP " 	0
scalar scenarioPRJP1.node[71].wlan.mac 	"sentWithoutRetry AC 0" 	590
scalar scenarioPRJP1.node[71].wlan.mac 	"sentWithoutRetry AC 1" 	31
scalar scenarioPRJP1.node[71].wlan.mac 	"sentWithoutRetry AC 2" 	0
scalar scenarioPRJP1.node[71].wlan.mac 	"sentWithoutRetry AC 3" 	0
scalar scenarioPRJP1.node[71].wlan.mac 	"numGivenUp AC 0" 	310
scalar scenarioPRJP1.node[71].wlan.mac 	"numGivenUp AC 1" 	5
scalar scenarioPRJP1.node[71].wlan.mac 	"numGivenUp AC 2" 	0
scalar scenarioPRJP1.node[71].wlan.mac 	"numGivenUp AC 3" 	0
scalar scenarioPRJP1.node[71].wlan.mac 	"numDropped AC 0" 	0
scalar scenarioPRJP1.node[71].wlan.mac 	"numDropped AC 1" 	0
scalar scenarioPRJP1.node[71].wlan.mac 	"numDropped AC 2" 	0
scalar scenarioPRJP1.node[71].wlan.mac 	"numDropped AC 3" 	0
scalar scenarioPRJP1.node[71].wlan.mac 	rcvdPkFromLL:count 	32397
attr interpolationmode  none
attr source  packetReceivedFromLower
attr title  "packets received from lower layer, count"
scalar scenarioPRJP1.node[71].wlan.mac 	rcvdPkFromLL:sum(packetBytes) 	18905382
attr interpolationmode  none
attr source  packetReceivedFromLower
attr title  "packets received from lower layer, sum(packetBytes)"
scalar scenarioPRJP1.node[71].wlan.mac 	sentDownPk:count 	6915
attr interpolationmode  none
attr source  packetSentToLower
attr title  "packets sent to lower layer, count"
scalar scenarioPRJP1.node[71].wlan.mac 	sentDownPk:sum(packetBytes) 	4345462
attr interpolationmode  none
attr source  packetSentToLower
attr title  "packets sent to lower layer, sum(packetBytes)"
scalar scenarioPRJP1.node[71].wlan.mac 	rcvdPkFromHL:count 	3665
attr interpolationmode  none
attr source  packetReceivedFromUpper
attr title  "packets received from higher layer, count"
scalar scenarioPRJP1.node[71].wlan.mac 	rcvdPkFromHL:sum(packetBytes) 	3296544
attr interpolationmode  none
attr source  packetReceivedFromUpper
attr title  "packets received from higher layer, sum(packetBytes)"
scalar scenarioPRJP1.node[71].wlan.mac 	passedUpPk:count 	11156
attr interpolationmode  none
attr source  packetSentToUpper
attr title  "packets passed to higher layer, count"
scalar scenarioPRJP1.node[71].wlan.mac 	passedUpPk:sum(packetBytes) 	11023968
attr interpolationmode  none
attr source  packetSentToUpper
attr title  "packets passed to higher layer, sum(packetBytes)"
statistic scenarioPRJP1.node[71].wlan.radio 	radioChannel:histogram
field count 1
field mean 3
field stddev nan
field sum 3
field sqrsum 9
field min 3
field max 3
attr interpolationmode  sample-hold
attr source  radioChannelChanged
attr title  "Radio channel, histogram"
bin	-INF	0
bin	2	0
bin	3	1
bin	4	0
scalar scenarioPRJP1.node[71].wlan.radio 	transmissionState:count 	27658
attr interpolationmode  sample-hold
attr source  transmissionStateChanged
attr title  "Radio transmission state, count"
scalar scenarioPRJP1.node[71].wlan.radio 	receptionState:count 	79069
attr interpolationmode  sample-hold
attr source  receptionStateChanged
attr title  "Radio reception state, count"
scalar scenarioPRJP1.node[71].wlan.radio 	radioMode:count 	13831
attr interpolationmode  sample-hold
attr source  radioModeChanged
attr title  "Radio mode, count"
statistic scenarioPRJP1.node[71].wlan.radio 	symbolErrorRate:histogram
field count 0
field mean nan
field stddev nan
field sum 0
field sqrsum 0
field min nan
field max nan
attr source  symbolErrorRate
attr title  "Symbol error rate, histogram"
bin	-INF	0
bin	-0.5	0
bin	-0.46666666666667	0
bin	-0.43333333333333	0
bin	-0.4	0
bin	-0.36666666666667	0
bin	-0.33333333333333	0
bin	-0.3	0
bin	-0.26666666666667	0
bin	-0.23333333333333	0
bin	-0.2	0
bin	-0.16666666666667	0
bin	-0.13333333333333	0
bin	-0.1	0
bin	-0.066666666666667	0
bin	-0.033333333333333	0
bin	0	0
bin	0.033333333333333	0
bin	0.066666666666667	0
bin	0.1	0
bin	0.13333333333333	0
bin	0.16666666666667	0
bin	0.2	0
bin	0.23333333333333	0
bin	0.26666666666667	0
bin	0.3	0
bin	0.33333333333333	0
bin	0.36666666666667	0
bin	0.4	0
bin	0.43333333333333	0
bin	0.46666666666667	0
bin	0.5	0
statistic scenarioPRJP1.node[71].wlan.radio 	bitErrorRate:histogram
field count 0
field mean nan
field stddev nan
field sum 0
field sqrsum 0
field min nan
field max nan
attr source  bitErrorRate
attr title  "Bit error rate, histogram"
bin	-INF	0
bin	-0.5	0
bin	-0.46666666666667	0
bin	-0.43333333333333	0
bin	-0.4	0
bin	-0.36666666666667	0
bin	-0.33333333333333	0
bin	-0.3	0
bin	-0.26666666666667	0
bin	-0.23333333333333	0
bin	-0.2	0
bin	-0.16666666666667	0
bin	-0.13333333333333	0
bin	-0.1	0
bin	-0.066666666666667	0
bin	-0.033333333333333	0
bin	0	0
bin	0.033333333333333	0
bin	0.066666666666667	0
bin	0.1	0
bin	0.13333333333333	0
bin	0.16666666666667	0
bin	0.2	0
bin	0.23333333333333	0
bin	0.26666666666667	0
bin	0.3	0
bin	0.33333333333333	0
bin	0.36666666666667	0
bin	0.4	0
bin	0.43333333333333	0
bin	0.46666666666667	0
bin	0.5	0
statistic scenarioPRJP1.node[71].wlan.radio 	packetErrorRate:histogram
field count 32397
field mean 0.11507948280517
field stddev 0.31162980023334
field sum 3728.2300044392
field sqrsum 3575.1198177086
field min 0
field max 1
attr source  packetErrorRate
attr title  "Packet error rate, histogram"
bin	-INF	0
bin	-0.5	0
bin	-0.46666666666667	0
bin	-0.43333333333333	0
bin	-0.4	0
bin	-0.36666666666667	0
bin	-0.33333333333333	0
bin	-0.3	0
bin	-0.26666666666667	0
bin	-0.23333333333333	0
bin	-0.2	0
bin	-0.16666666666667	0
bin	-0.13333333333333	0
bin	-0.1	0
bin	-0.066666666666667	0
bin	-0.033333333333333	0
bin	0	28024
bin	0.033333333333333	181
bin	0.066666666666667	97
bin	0.1	67
bin	0.13333333333333	48
bin	0.16666666666667	38
bin	0.2	37
bin	0.23333333333333	41
bin	0.26666666666667	36
bin	0.3	29
bin	0.33333333333333	26
bin	0.36666666666667	27
bin	0.4	34
bin	0.43333333333333	27
bin	0.46666666666667	25
bin	0.5	3660
statistic scenarioPRJP1.node[71].wlan.radio 	minSNIR:histogram
field count 32397
field mean 10767.801135198
field stddev 72324.421947703
field sum 348844453.37702
field sqrsum 1.7321399753929e+14
field min 0.00032092049649155
field max 753239.71923443
attr source  minSNIR
attr title  "Min SNIR, histogram"
bin	-INF	0
bin	-14332.980884881	0
bin	-12418.606824807	0
bin	-10504.232764733	0
bin	-8589.8587046597	0
bin	-6675.484644586	0
bin	-4761.1105845123	0
bin	-2846.7365244386	0
bin	-932.36246436487	26199
bin	982.01159570883	2052
bin	2896.3856557825	788
bin	4810.7597158562	504
bin	6725.1337759299	328
bin	8639.5078360036	231
bin	10553.881896077	187
bin	12468.255956151	195
bin	14382.630016225	178
bin	16297.004076298	60
bin	18211.378136372	113
bin	20125.752196446	78
bin	22040.12625652	34
bin	23954.500316593	89
bin	25868.874376667	34
bin	27783.248436741	26
bin	29697.622496814	22
bin	31611.996556888	26
bin	33526.370616962	29
bin	35440.744677035	15
bin	37355.118737109	54
bin	39269.492797183	49
bin	41183.866857257	23
bin	43098.24091733	1083
scalar scenarioPRJP1.node[71].lo0.lo 	droppedPkBitError:count 	0
attr interpolationmode  none
attr source  dropPkBitError
attr title  "packets dropped/bit error, count"
scalar scenarioPRJP1.node[71].lo0.lo 	droppedPkBitError:sum(packetBytes) 	0
attr interpolationmode  none
attr source  dropPkBitError
attr title  "packets dropped/bit error, sum(packetBytes)"
scalar scenarioPRJP1.node[71].lo0.lo 	rcvdPkFromHL:count 	7
attr interpolationmode  none
attr source  packetReceivedFromUpper
attr title  "packets received from higher layer, count"
scalar scenarioPRJP1.node[71].lo0.lo 	rcvdPkFromHL:sum(packetBytes) 	392
attr interpolationmode  none
attr source  packetReceivedFromUpper
attr title  "packets received from higher layer, sum(packetBytes)"
scalar scenarioPRJP1.node[71].lo0.lo 	passedUpPk:count 	7
attr interpolationmode  none
attr source  packetSentToUpper
attr title  "packets passed to higher layer, count"
scalar scenarioPRJP1.node[71].lo0.lo 	passedUpPk:sum(packetBytes) 	392
attr interpolationmode  none
attr source  packetSentToUpper
attr title  "packets passed to higher layer, sum(packetBytes)"
scalar scenarioPRJP1.node[1].app 	"Total sent" 	2626
scalar scenarioPRJP1.node[1].app 	"Total received" 	210
scalar scenarioPRJP1.node[1].app 	"Total deleted" 	0
scalar scenarioPRJP1.node[1].app 	dropPk:count 	0
attr interpolationmode  none
attr source  dropPk
attr title  "packets dropped, count"
scalar scenarioPRJP1.node[1].app 	dropPk:sum(packetBytes) 	0
attr interpolationmode  none
attr source  dropPk
attr title  "packets dropped, sum(packetBytes)"
scalar scenarioPRJP1.node[1].app 	outOfOrderPk:count 	0
attr interpolationmode  none
attr source  outOfOrderPk
attr title  "packets received out of order, count"
scalar scenarioPRJP1.node[1].app 	outOfOrderPk:sum(packetBytes) 	0
attr interpolationmode  none
attr source  outOfOrderPk
attr title  "packets received out of order, sum(packetBytes)"
scalar scenarioPRJP1.node[1].app 	rcvdPk:count 	210
attr interpolationmode  none
attr source  rcvdPk
attr title  "packets received, count"
scalar scenarioPRJP1.node[1].app 	rcvdPk:sum(packetBytes) 	107520
attr interpolationmode  none
attr source  rcvdPk
attr title  "packets received, sum(packetBytes)"
statistic scenarioPRJP1.node[1].app 	endToEndDelay:histogram
field count 210
field mean 0.077366720947519
field stddev 0.26180688361965
field sum 16.247011398979
field sqrsum 15.582432458058
field min 0.000945025215
field max 1.320955812416
attr interpolationmode  none
attr source  messageAge(rcvdPk)
attr title  "delay, histogram"
attr unit  s
bin	-INF	0
bin	-0.654246092915	0
bin	-0.56688727716433	0
bin	-0.47952846141367	0
bin	-0.392169645663	0
bin	-0.30481082991233	0
bin	-0.21745201416167	0
bin	-0.130093198411	0
bin	-0.042734382660333	184
bin	0.044624433090333	13
bin	0.131983248841	0
bin	0.21934206459167	0
bin	0.30670088034233	0
bin	0.394059696093	0
bin	0.48141851184367	0
bin	0.56877732759433	0
bin	0.656136143345	0
bin	0.74349495909567	0
bin	0.83085377484633	1
bin	0.918212590597	1
bin	1.0055714063477	8
bin	1.0929302220983	0
bin	1.180289037849	0
bin	1.2676478535997	3
bin	1.3550066693503	0
bin	1.442365485101	0
bin	1.5297243008517	0
bin	1.6170831166023	0
bin	1.704441932353	0
bin	1.7918007481037	0
bin	1.8791595638543	0
bin	1.966518379605	0
scalar scenarioPRJP1.node[1].app 	sentPk:count 	2626
attr interpolationmode  none
attr source  sentPk
attr title  "packets sent, count"
scalar scenarioPRJP1.node[1].app 	sentPk:sum(packetBytes) 	1344512
attr interpolationmode  none
attr source  sentPk
attr title  "packets sent, sum(packetBytes)"
scalar scenarioPRJP1.node[1].udp 	droppedPkBadChecksum:count 	0
attr interpolationmode  none
attr title  "packets dropped (checksum error), count"
scalar scenarioPRJP1.node[1].udp 	droppedPkWrongPort:count 	0
attr interpolationmode  none
attr title  "packets dropped (wrong port), count"
scalar scenarioPRJP1.node[1].udp 	passedUpPk:count 	210
attr interpolationmode  none
attr title  "packets passed up, count"
scalar scenarioPRJP1.node[1].udp 	rcvdPk:count 	210
attr interpolationmode  none
attr source  rcvdPk
attr title  "packets received, count"
scalar scenarioPRJP1.node[1].udp 	rcvdPk:sum(packetBytes) 	109200
attr interpolationmode  none
attr source  rcvdPk
attr title  "packets received, sum(packetBytes)"
scalar scenarioPRJP1.node[1].udp 	sentPk:count 	2626
attr interpolationmode  none
attr source  sentPk
attr title  "packets sent, count"
scalar scenarioPRJP1.node[1].udp 	sentPk:sum(packetBytes) 	1365520
attr interpolationmode  none
attr source  sentPk
attr title  "packets sent, sum(packetBytes)"
scalar scenarioPRJP1.node[1].networkLayer.arp 	failedARPResolution:count 	3
attr title  "ARP failed resolutions, count"
scalar scenarioPRJP1.node[1].networkLayer.arp 	completedARPResolution:count 	558
attr title  "ARP completed resolutions, count"
scalar scenarioPRJP1.node[1].networkLayer.arp 	initiatedARPResolution:count 	58
attr title  "ARP initiated resolutions, count"
scalar scenarioPRJP1.node[1].networkLayer.arp 	sentReply:count 	51
attr title  "ARP replies sent, count"
scalar scenarioPRJP1.node[1].networkLayer.arp 	sentReq:count 	75
attr title  "ARP request sent, count"
scalar scenarioPRJP1.node[1].mobility 	startTime 	0.1
scalar scenarioPRJP1.node[1].mobility 	totalTime 	949.9
scalar scenarioPRJP1.node[1].mobility 	stopTime 	950
scalar scenarioPRJP1.node[1].mobility 	minSpeed 	2.4755588163689e-13
scalar scenarioPRJP1.node[1].mobility 	maxSpeed 	19.299547667962
scalar scenarioPRJP1.node[1].mobility 	totalDistance 	8101.2070001595
scalar scenarioPRJP1.node[1].mobility 	totalCO2Emission 	2553.9013418099
scalar scenarioPRJP1.node[1].wlan.mgmt 	dataQueueLen:max 	1
attr interpolationmode  sample-hold
attr title  "data queue length, max"
scalar scenarioPRJP1.node[1].wlan.mgmt 	dataQueueLen:timeavg 	0
attr interpolationmode  sample-hold
attr title  "data queue length, timeavg"
scalar scenarioPRJP1.node[1].wlan.mgmt 	dropPkByQueue:count 	0
attr interpolationmode  none
attr source  dropPkByQueue
attr title  "packets dropped by queue, count"
scalar scenarioPRJP1.node[1].wlan.mgmt 	dropPkByQueue:sum(packetBytes) 	0
attr interpolationmode  none
attr source  dropPkByQueue
attr title  "packets dropped by queue, sum(packetBytes)"
scalar scenarioPRJP1.node[1].wlan.mac 	"number of received packets" 	2003
scalar scenarioPRJP1.node[1].wlan.mac 	"number of collisions" 	4570
scalar scenarioPRJP1.node[1].wlan.mac 	"number of internal collisions" 	3
scalar scenarioPRJP1.node[1].wlan.mac 	"number of retry for AC 0" 	2188
scalar scenarioPRJP1.node[1].wlan.mac 	"number of retry for AC 1" 	44
scalar scenarioPRJP1.node[1].wlan.mac 	"number of retry for AC 2" 	0
scalar scenarioPRJP1.node[1].wlan.mac 	"number of retry for AC 3" 	0
scalar scenarioPRJP1.node[1].wlan.mac 	"sent and received bits" 	28605792
scalar scenarioPRJP1.node[1].wlan.mac 	"sent packet within AC 0" 	1197
scalar scenarioPRJP1.node[1].wlan.mac 	"sent packet within AC 1" 	39
scalar scenarioPRJP1.node[1].wlan.mac 	"sent packet within AC 2" 	0
scalar scenarioPRJP1.node[1].wlan.mac 	"sent packet within AC 3" 	0
scalar scenarioPRJP1.node[1].wlan.mac 	"sent in TXOP " 	0
scalar scenarioPRJP1.node[1].wlan.mac 	"sentWithoutRetry AC 0" 	1146
scalar scenarioPRJP1.node[1].wlan.mac 	"sentWithoutRetry AC 1" 	37
scalar scenarioPRJP1.node[1].wlan.mac 	"sentWithoutRetry AC 2" 	0
scalar scenarioPRJP1.node[1].wlan.mac 	"sentWithoutRetry AC 3" 	0
scalar scenarioPRJP1.node[1].wlan.mac 	"numGivenUp AC 0" 	346
scalar scenarioPRJP1.node[1].wlan.mac 	"numGivenUp AC 1" 	7
scalar scenarioPRJP1.node[1].wlan.mac 	"numGivenUp AC 2" 	0
scalar scenarioPRJP1.node[1].wlan.mac 	"numGivenUp AC 3" 	0
scalar scenarioPRJP1.node[1].wlan.mac 	"numDropped AC 0" 	0
scalar scenarioPRJP1.node[1].wlan.mac 	"numDropped AC 1" 	0
scalar scenarioPRJP1.node[1].wlan.mac 	"numDropped AC 2" 	0
scalar scenarioPRJP1.node[1].wlan.mac 	"numDropped AC 3" 	0
scalar scenarioPRJP1.node[1].wlan.mac 	rcvdPkFromLL:count 	49023
attr interpolationmode  none
attr source  packetReceivedFromLower
attr title  "packets received from lower layer, count"
scalar scenarioPRJP1.node[1].wlan.mac 	rcvdPkFromLL:sum(packetBytes) 	27136420
attr interpolationmode  none
attr source  packetReceivedFromLower
attr title  "packets received from lower layer, sum(packetBytes)"
scalar scenarioPRJP1.node[1].wlan.mac 	sentDownPk:count 	8634
attr interpolationmode  none
attr source  packetSentToLower
attr title  "packets sent to lower layer, count"
scalar scenarioPRJP1.node[1].wlan.mac 	sentDownPk:sum(packetBytes) 	4964426
attr interpolationmode  none
attr source  packetSentToLower
attr title  "packets sent to lower layer, sum(packetBytes)"
scalar scenarioPRJP1.node[1].wlan.mac 	rcvdPkFromHL:count 	4402
attr interpolationmode  none
attr source  packetReceivedFromUpper
attr title  "packets received from higher layer, count"
scalar scenarioPRJP1.node[1].wlan.mac 	rcvdPkFromHL:sum(packetBytes) 	3761840
attr interpolationmode  none
attr source  packetReceivedFromUpper
attr title  "packets received from higher layer, sum(packetBytes)"
scalar scenarioPRJP1.node[1].wlan.mac 	passedUpPk:count 	15934
attr interpolationmode  none
attr source  packetSentToUpper
attr title  "packets passed to higher layer, count"
scalar scenarioPRJP1.node[1].wlan.mac 	passedUpPk:sum(packetBytes) 	15464552
attr interpolationmode  none
attr source  packetSentToUpper
attr title  "packets passed to higher layer, sum(packetBytes)"
statistic scenarioPRJP1.node[1].wlan.radio 	radioChannel:histogram
field count 1
field mean 3
field stddev nan
field sum 3
field sqrsum 9
field min 3
field max 3
attr interpolationmode  sample-hold
attr source  radioChannelChanged
attr title  "Radio channel, histogram"
bin	-INF	0
bin	2	0
bin	3	1
bin	4	0
scalar scenarioPRJP1.node[1].wlan.radio 	transmissionState:count 	34536
attr interpolationmode  sample-hold
attr source  transmissionStateChanged
attr title  "Radio transmission state, count"
scalar scenarioPRJP1.node[1].wlan.radio 	receptionState:count 	116180
attr interpolationmode  sample-hold
attr source  receptionStateChanged
attr title  "Radio reception state, count"
scalar scenarioPRJP1.node[1].wlan.radio 	radioMode:count 	17270
attr interpolationmode  sample-hold
attr source  radioModeChanged
attr title  "Radio mode, count"
statistic scenarioPRJP1.node[1].wlan.radio 	symbolErrorRate:histogram
field count 0
field mean nan
field stddev nan
field sum 0
field sqrsum 0
field min nan
field max nan
attr source  symbolErrorRate
attr title  "Symbol error rate, histogram"
bin	-INF	0
bin	-0.5	0
bin	-0.46666666666667	0
bin	-0.43333333333333	0
bin	-0.4	0
bin	-0.36666666666667	0
bin	-0.33333333333333	0
bin	-0.3	0
bin	-0.26666666666667	0
bin	-0.23333333333333	0
bin	-0.2	0
bin	-0.16666666666667	0
bin	-0.13333333333333	0
bin	-0.1	0
bin	-0.066666666666667	0
bin	-0.033333333333333	0
bin	0	0
bin	0.033333333333333	0
bin	0.066666666666667	0
bin	0.1	0
bin	0.13333333333333	0
bin	0.16666666666667	0
bin	0.2	0
bin	0.23333333333333	0
bin	0.26666666666667	0
bin	0.3	0
bin	0.33333333333333	0
bin	0.36666666666667	0
bin	0.4	0
bin	0.43333333333333	0
bin	0.46666666666667	0
bin	0.5	0
statistic scenarioPRJP1.node[1].wlan.radio 	bitErrorRate:histogram
field count 0
field mean nan
field stddev nan
field sum 0
field sqrsum 0
field min nan
field max nan
attr source  bitErrorRate
attr title  "Bit error rate, histogram"
bin	-INF	0
bin	-0.5	0
bin	-0.46666666666667	0
bin	-0.43333333333333	0
bin	-0.4	0
bin	-0.36666666666667	0
bin	-0.33333333333333	0
bin	-0.3	0
bin	-0.26666666666667	0
bin	-0.23333333333333	0
bin	-0.2	0
bin	-0.16666666666667	0
bin	-0.13333333333333	0
bin	-0.1	0
bin	-0.066666666666667	0
bin	-0.033333333333333	0
bin	0	0
bin	0.033333333333333	0
bin	0.066666666666667	0
bin	0.1	0
bin	0.13333333333333	0
bin	0.16666666666667	0
bin	0.2	0
bin	0.23333333333333	0
bin	0.26666666666667	0
bin	0.3	0
bin	0.33333333333333	0
bin	0.36666666666667	0
bin	0.4	0
bin	0.43333333333333	0
bin	0.46666666666667	0
bin	0.5	0
statistic scenarioPRJP1.node[1].wlan.radio 	packetErrorRate:histogram
field count 49023
field mean 0.08741961409605
field stddev 0.27510470487989
field sum 4285.5717418307
field sqrsum 4084.7553787274
field min 0
field max 1
attr source  packetErrorRate
attr title  "Packet error rate, histogram"
bin	-INF	5233
bin	-7.7710282653243e-11	0
bin	-6.734891163281e-11	0
bin	-5.6987540612378e-11	0
bin	-4.6626169591946e-11	0
bin	-3.6264798571513e-11	0
bin	-2.5903427551081e-11	0
bin	-1.5542056530649e-11	0
bin	-5.1806855102162e-12	38550
bin	5.1806855102162e-12	206
bin	1.5542056530649e-11	79
bin	2.5903427551081e-11	67
bin	3.6264798571513e-11	50
bin	4.6626169591946e-11	32
bin	5.6987540612378e-11	29
bin	6.734891163281e-11	21
bin	7.7710282653243e-11	30
bin	8.8071653673675e-11	18
bin	9.8433024694107e-11	11
bin	1.0879439571454e-10	18
bin	1.1915576673497e-10	9
bin	1.295171377554e-10	10
bin	1.3987850877584e-10	14
bin	1.5023987979627e-10	11
bin	1.606012508167e-10	10
bin	1.7096262183713e-10	13
bin	1.8132399285757e-10	8
bin	1.91685363878e-10	14
bin	2.0204673489843e-10	18
bin	2.1240810591886e-10	10
bin	2.227694769393e-10	10
bin	2.3313084795973e-10	4552
statistic scenarioPRJP1.node[1].wlan.radio 	minSNIR:histogram
field count 49023
field mean 13606.216822124
field stddev 76778.236568949
field sum 667017567.27097
field sqrsum 2.9805525631313e+14
field min 0.00017093997272169
field max 928370.74987
attr source  minSNIR
attr title  "Min SNIR, histogram"
bin	-INF	0
bin	-5342.5984107136	0
bin	-4629.4444021842	0
bin	-3916.2903936547	0
bin	-3203.1363851252	0
bin	-2489.9823765958	0
bin	-1776.8283680663	0
bin	-1063.6743595369	0
bin	-350.5203510074	31858
bin	362.63365752206	4699
bin	1075.7876660515	2065
bin	1788.941674581	1154
bin	2502.0956831104	768
bin	3215.2496916399	496
bin	3928.4037001694	479
bin	4641.5577086988	453
bin	5354.7117172283	334
bin	6067.8657257578	305
bin	6781.0197342872	220
bin	7494.1737428167	319
bin	8207.3277513461	208
bin	8920.4817598756	238
bin	9633.6357684051	234
bin	10346.789776935	194
bin	11059.943785464	174
bin	11773.097793993	257
bin	12486.251802523	326
bin	13199.405811052	120
bin	13912.559819582	96
bin	14625.713828111	91
bin	15338.867836641	117
bin	16052.02184517	3818
scalar scenarioPRJP1.node[1].lo0.lo 	droppedPkBitError:count 	0
attr interpolationmode  none
attr source  dropPkBitError
attr title  "packets dropped/bit error, count"
scalar scenarioPRJP1.node[1].lo0.lo 	droppedPkBitError:sum(packetBytes) 	0
attr interpolationmode  none
attr source  dropPkBitError
attr title  "packets dropped/bit error, sum(packetBytes)"
scalar scenarioPRJP1.node[1].lo0.lo 	rcvdPkFromHL:count 	12
attr interpolationmode  none
attr source  packetReceivedFromUpper
attr title  "packets received from higher layer, count"
scalar scenarioPRJP1.node[1].lo0.lo 	rcvdPkFromHL:sum(packetBytes) 	672
attr interpolationmode  none
attr source  packetReceivedFromUpper
attr title  "packets received from higher layer, sum(packetBytes)"
scalar scenarioPRJP1.node[1].lo0.lo 	passedUpPk:count 	12
attr interpolationmode  none
attr source  packetSentToUpper
attr title  "packets passed to higher layer, count"
scalar scenarioPRJP1.node[1].lo0.lo 	passedUpPk:sum(packetBytes) 	672
attr interpolationmode  none
attr source  packetSentToUpper
attr title  "packets passed to higher layer, sum(packetBytes)"
scalar scenarioPRJP1.node[21].app 	"Total sent" 	2606
scalar scenarioPRJP1.node[21].app 	"Total received" 	180
scalar scenarioPRJP1.node[21].app 	"Total deleted" 	0
scalar scenarioPRJP1.node[21].app 	dropPk:count 	0
attr interpolationmode  none
attr source  dropPk
attr title  "packets dropped, count"
scalar scenarioPRJP1.node[21].app 	dropPk:sum(packetBytes) 	0
attr interpolationmode  none
attr source  dropPk
attr title  "packets dropped, sum(packetBytes)"
scalar scenarioPRJP1.node[21].app 	outOfOrderPk:count 	0
attr interpolationmode  none
attr source  outOfOrderPk
attr title  "packets received out of order, count"
scalar scenarioPRJP1.node[21].app 	outOfOrderPk:sum(packetBytes) 	0
attr interpolationmode  none
attr source  outOfOrderPk
attr title  "packets received out of order, sum(packetBytes)"
scalar scenarioPRJP1.node[21].app 	rcvdPk:count 	180
attr interpolationmode  none
attr source  rcvdPk
attr title  "packets received, count"
scalar scenarioPRJP1.node[21].app 	rcvdPk:sum(packetBytes) 	92160
attr interpolationmode  none
attr source  rcvdPk
attr title  "packets received, sum(packetBytes)"
statistic scenarioPRJP1.node[21].app 	endToEndDelay:histogram
field count 180
field mean 0.027041463688222
field stddev 0.12910544140143
field sum 4.86746346388
field sqrsum 3.1152338214151
field min 0.000945027751
field max 1.302896915468
attr interpolationmode  none
attr source  messageAge(rcvdPk)
attr title  "delay, histogram"
attr unit  s
bin	-INF	0
bin	-0.6500309161075	0
bin	-0.56323412359303	0
bin	-0.47643733107857	0
bin	-0.3896405385641	0
bin	-0.30284374604963	0
bin	-0.21604695353517	0
bin	-0.1292501610207	0
bin	-0.042453368506233	168
bin	0.044343424008233	8
bin	0.1311402165227	0
bin	0.21793700903717	1
bin	0.30473380155163	0
bin	0.3915305940661	0
bin	0.47832738658057	1
bin	0.56512417909503	0
bin	0.6519209716095	0
bin	0.73871776412397	0
bin	0.82551455663843	0
bin	0.9123113491529	0
bin	0.99910814166737	1
bin	1.0859049341818	0
bin	1.1727017266963	0
bin	1.2594985192108	1
bin	1.3462953117252	0
bin	1.4330921042397	0
bin	1.5198888967542	0
bin	1.6066856892686	0
bin	1.6934824817831	0
bin	1.7802792742976	0
bin	1.867076066812	0
bin	1.9538728593265	0
scalar scenarioPRJP1.node[21].app 	sentPk:count 	2606
attr interpolationmode  none
attr source  sentPk
attr title  "packets sent, count"
scalar scenarioPRJP1.node[21].app 	sentPk:sum(packetBytes) 	1334272
attr interpolationmode  none
attr source  sentPk
attr title  "packets sent, sum(packetBytes)"
scalar scenarioPRJP1.node[21].udp 	droppedPkBadChecksum:count 	0
attr interpolationmode  none
attr title  "packets dropped (checksum error), count"
scalar scenarioPRJP1.node[21].udp 	droppedPkWrongPort:count 	0
attr interpolationmode  none
attr title  "packets dropped (wrong port), count"
scalar scenarioPRJP1.node[21].udp 	passedUpPk:count 	180
attr interpolationmode  none
attr title  "packets passed up, count"
scalar scenarioPRJP1.node[21].udp 	rcvdPk:count 	180
attr interpolationmode  none
attr source  rcvdPk
attr title  "packets received, count"
scalar scenarioPRJP1.node[21].udp 	rcvdPk:sum(packetBytes) 	93600
attr interpolationmode  none
attr source  rcvdPk
attr title  "packets received, sum(packetBytes)"
scalar scenarioPRJP1.node[21].udp 	sentPk:count 	2606
attr interpolationmode  none
attr source  sentPk
attr title  "packets sent, count"
scalar scenarioPRJP1.node[21].udp 	sentPk:sum(packetBytes) 	1355120
attr interpolationmode  none
attr source  sentPk
attr title  "packets sent, sum(packetBytes)"
scalar scenarioPRJP1.node[21].networkLayer.arp 	failedARPResolution:count 	16
attr title  "ARP failed resolutions, count"
scalar scenarioPRJP1.node[21].networkLayer.arp 	completedARPResolution:count 	427
attr title  "ARP completed resolutions, count"
scalar scenarioPRJP1.node[21].networkLayer.arp 	initiatedARPResolution:count 	66
attr title  "ARP initiated resolutions, count"
scalar scenarioPRJP1.node[21].networkLayer.arp 	sentReply:count 	53
attr title  "ARP replies sent, count"
scalar scenarioPRJP1.node[21].networkLayer.arp 	sentReq:count 	108
attr title  "ARP request sent, count"
scalar scenarioPRJP1.node[21].mobility 	startTime 	2.5
scalar scenarioPRJP1.node[21].mobility 	totalTime 	947.5
scalar scenarioPRJP1.node[21].mobility 	stopTime 	950
scalar scenarioPRJP1.node[21].mobility 	minSpeed 	2.4755882899053e-13
scalar scenarioPRJP1.node[21].mobility 	maxSpeed 	15.768702919639
scalar scenarioPRJP1.node[21].mobility 	totalDistance 	8440.1457238101
scalar scenarioPRJP1.node[21].mobility 	totalCO2Emission 	2249.2185099889
scalar scenarioPRJP1.node[21].wlan.mgmt 	dataQueueLen:max 	2
attr interpolationmode  sample-hold
attr title  "data queue length, max"
scalar scenarioPRJP1.node[21].wlan.mgmt 	dataQueueLen:timeavg 	0
attr interpolationmode  sample-hold
attr title  "data queue length, timeavg"
scalar scenarioPRJP1.node[21].wlan.mgmt 	dropPkByQueue:count 	0
attr interpolationmode  none
attr source  dropPkByQueue
attr title  "packets dropped by queue, count"
scalar scenarioPRJP1.node[21].wlan.mgmt 	dropPkByQueue:sum(packetBytes) 	0
attr interpolationmode  none
attr source  dropPkByQueue
attr title  "packets dropped by queue, sum(packetBytes)"
scalar scenarioPRJP1.node[21].wlan.mac 	"number of received packets" 	1499
scalar scenarioPRJP1.node[21].wlan.mac 	"number of collisions" 	5052
scalar scenarioPRJP1.node[21].wlan.mac 	"number of internal collisions" 	0
scalar scenarioPRJP1.node[21].wlan.mac 	"number of retry for AC 0" 	2254
scalar scenarioPRJP1.node[21].wlan.mac 	"number of retry for AC 1" 	13
scalar scenarioPRJP1.node[21].wlan.mac 	"number of retry for AC 2" 	0
scalar scenarioPRJP1.node[21].wlan.mac 	"number of retry for AC 3" 	0
scalar scenarioPRJP1.node[21].wlan.mac 	"sent and received bits" 	24982624
scalar scenarioPRJP1.node[21].wlan.mac 	"sent packet within AC 0" 	735
scalar scenarioPRJP1.node[21].wlan.mac 	"sent packet within AC 1" 	38
scalar scenarioPRJP1.node[21].wlan.mac 	"sent packet within AC 2" 	0
scalar scenarioPRJP1.node[21].wlan.mac 	"sent packet within AC 3" 	0
scalar scenarioPRJP1.node[21].wlan.mac 	"sent in TXOP " 	0
scalar scenarioPRJP1.node[21].wlan.mac 	"sentWithoutRetry AC 0" 	685
scalar scenarioPRJP1.node[21].wlan.mac 	"sentWithoutRetry AC 1" 	37
scalar scenarioPRJP1.node[21].wlan.mac 	"sentWithoutRetry AC 2" 	0
scalar scenarioPRJP1.node[21].wlan.mac 	"sentWithoutRetry AC 3" 	0
scalar scenarioPRJP1.node[21].wlan.mac 	"numGivenUp AC 0" 	358
scalar scenarioPRJP1.node[21].wlan.mac 	"numGivenUp AC 1" 	2
scalar scenarioPRJP1.node[21].wlan.mac 	"numGivenUp AC 2" 	0
scalar scenarioPRJP1.node[21].wlan.mac 	"numGivenUp AC 3" 	0
scalar scenarioPRJP1.node[21].wlan.mac 	"numDropped AC 0" 	0
scalar scenarioPRJP1.node[21].wlan.mac 	"numDropped AC 1" 	0
scalar scenarioPRJP1.node[21].wlan.mac 	"numDropped AC 2" 	0
scalar scenarioPRJP1.node[21].wlan.mac 	"numDropped AC 3" 	0
scalar scenarioPRJP1.node[21].wlan.mac 	rcvdPkFromLL:count 	39849
attr interpolationmode  none
attr source  packetReceivedFromLower
attr title  "packets received from lower layer, count"
scalar scenarioPRJP1.node[21].wlan.mac 	rcvdPkFromLL:sum(packetBytes) 	22954110
attr interpolationmode  none
attr source  packetReceivedFromLower
attr title  "packets received from lower layer, sum(packetBytes)"
scalar scenarioPRJP1.node[21].wlan.mac 	sentDownPk:count 	7565
attr interpolationmode  none
attr source  packetSentToLower
attr title  "packets sent to lower layer, count"
scalar scenarioPRJP1.node[21].wlan.mac 	sentDownPk:sum(packetBytes) 	4548330
attr interpolationmode  none
attr source  packetSentToLower
attr title  "packets sent to lower layer, sum(packetBytes)"
scalar scenarioPRJP1.node[21].wlan.mac 	rcvdPkFromHL:count 	3799
attr interpolationmode  none
attr source  packetReceivedFromUpper
attr title  "packets received from higher layer, count"
scalar scenarioPRJP1.node[21].wlan.mac 	rcvdPkFromHL:sum(packetBytes) 	3315396
attr interpolationmode  none
attr source  packetReceivedFromUpper
attr title  "packets received from higher layer, sum(packetBytes)"
scalar scenarioPRJP1.node[21].wlan.mac 	passedUpPk:count 	13266
attr interpolationmode  none
attr source  packetSentToUpper
attr title  "packets passed to higher layer, count"
scalar scenarioPRJP1.node[21].wlan.mac 	passedUpPk:sum(packetBytes) 	13067200
attr interpolationmode  none
attr source  packetSentToUpper
attr title  "packets passed to higher layer, sum(packetBytes)"
statistic scenarioPRJP1.node[21].wlan.radio 	radioChannel:histogram
field count 1
field mean 3
field stddev nan
field sum 3
field sqrsum 9
field min 3
field max 3
attr interpolationmode  sample-hold
attr source  radioChannelChanged
attr title  "Radio channel, histogram"
bin	-INF	0
bin	2	0
bin	3	1
bin	4	0
scalar scenarioPRJP1.node[21].wlan.radio 	transmissionState:count 	30260
[...]
field count 1
field mean 3
field stddev nan
field sum 3
field sqrsum 9
field min 3
field max 3
attr interpolationmode  sample-hold
attr source  radioChannelChanged
attr title  "Radio channel, histogram"
bin	-INF	0
bin	2	0
bin	3	1
bin	4	0
scalar scenarioPRJP1.node[56].wlan.radio 	transmissionState:count 	26884
attr interpolationmode  sample-hold
attr source  transmissionStateChanged
attr title  "Radio transmission state, count"
scalar scenarioPRJP1.node[56].wlan.radio 	receptionState:count 	78296
attr interpolationmode  sample-hold
attr source  receptionStateChanged
attr title  "Radio reception state, count"
scalar scenarioPRJP1.node[56].wlan.radio 	radioMode:count 	13444
attr interpolationmode  sample-hold
attr source  radioModeChanged
attr title  "Radio mode, count"
statistic scenarioPRJP1.node[56].wlan.radio 	symbolErrorRate:histogram
field count 0
field mean nan
field stddev nan
field sum 0
field sqrsum 0
field min nan
field max nan
attr source  symbolErrorRate
attr title  "Symbol error rate, histogram"
bin	-INF	0
bin	-0.5	0
bin	-0.46666666666667	0
bin	-0.43333333333333	0
bin	-0.4	0
bin	-0.36666666666667	0
bin	-0.33333333333333	0
bin	-0.3	0
bin	-0.26666666666667	0
bin	-0.23333333333333	0
bin	-0.2	0
bin	-0.16666666666667	0
bin	-0.13333333333333	0
bin	-0.1	0
bin	-0.066666666666667	0
bin	-0.033333333333333	0
bin	0	0
bin	0.033333333333333	0
bin	0.066666666666667	0
bin	0.1	0
bin	0.13333333333333	0
bin	0.16666666666667	0
bin	0.2	0
bin	0.23333333333333	0
bin	0.26666666666667	0
bin	0.3	0
bin	0.33333333333333	0
bin	0.36666666666667	0
bin	0.4	0
bin	0.43333333333333	0
bin	0.46666666666667	0
bin	0.5	0
statistic scenarioPRJP1.node[56].wlan.radio 	bitErrorRate:histogram
field count 0
field mean nan
field stddev nan
field sum 0
field sqrsum 0
field min nan
field max nan
attr source  bitErrorRate
attr title  "Bit error rate, histogram"
bin	-INF	0
bin	-0.5	0
bin	-0.46666666666667	0
bin	-0.43333333333333	0
bin	-0.4	0
bin	-0.36666666666667	0
bin	-0.33333333333333	0
bin	-0.3	0
bin	-0.26666666666667	0
bin	-0.23333333333333	0
bin	-0.2	0
bin	-0.16666666666667	0
bin	-0.13333333333333	0
bin	-0.1	0
bin	-0.066666666666667	0
bin	-0.033333333333333	0
bin	0	0
bin	0.033333333333333	0
bin	0.066666666666667	0
bin	0.1	0
bin	0.13333333333333	0
bin	0.16666666666667	0
bin	0.2	0
bin	0.23333333333333	0
bin	0.26666666666667	0
bin	0.3	0
bin	0.33333333333333	0
bin	0.36666666666667	0
bin	0.4	0
bin	0.43333333333333	0
bin	0.46666666666667	0
bin	0.5	0
statistic scenarioPRJP1.node[56].wlan.radio 	packetErrorRate:histogram
field count 32170
field mean 0.096037418750222
field stddev 0.28711674496659
field sum 3089.5237611946
field sqrsum 2948.594383145
field min 0
field max 1
attr source  packetErrorRate
attr title  "Packet error rate, histogram"
bin	-INF	0
bin	-0.0010134579071543	0
bin	-0.00087833018620043	0
bin	-0.00074320246524652	0
bin	-0.00060807474429261	0
bin	-0.0004729470233387	0
bin	-0.00033781930238478	0
bin	-0.00020269158143087	0
bin	-6.7563860476956e-05	27251
bin	6.7563860476956e-05	212
bin	0.00020269158143087	130
bin	0.00033781930238478	76
bin	0.0004729470233387	45
bin	0.00060807474429261	27
bin	0.00074320246524652	39
bin	0.00087833018620043	31
bin	0.0010134579071543	22
bin	0.0011485856281083	22
bin	0.0012837133490622	21
bin	0.0014188410700161	17
bin	0.00155396879097	13
bin	0.0016890965119239	12
bin	0.0018242242328778	17
bin	0.0019593519538317	19
bin	0.0020944796747857	9
bin	0.0022296073957396	10
bin	0.0023647351166935	16
bin	0.0024998628376474	9
bin	0.0026349905586013	6
bin	0.0027701182795552	17
bin	0.0029052460005091	6
bin	0.003040373721463	4143
statistic scenarioPRJP1.node[56].wlan.radio 	minSNIR:histogram
field count 32170
field mean 10752.357805984
field stddev 68123.576565263
field sum 345903350.6185
field sqrsum 1.5300986934613e+14
field min 0.00074161380251811
field max 753239.71923443
attr source  minSNIR
attr title  "Min SNIR, histogram"
bin	-INF	0
bin	-15382.438350039	0
bin	-13331.034592223	0
bin	-11279.630834407	0
bin	-9228.2270765902	0
bin	-7176.8233187738	0
bin	-5125.4195609574	0
bin	-3074.015803141	0
bin	-1022.6120453246	25676
bin	1028.7917124919	2271
bin	3080.1954703083	731
bin	5131.5992281247	378
bin	7183.0029859411	295
bin	9234.4067437575	208
bin	11285.810501574	252
bin	13337.21425939	205
bin	15388.618017207	100
bin	17440.021775023	171
bin	19491.42553284	66
bin	21542.829290656	110
bin	23594.233048472	65
bin	25645.636806289	57
bin	27697.040564105	43
bin	29748.444321922	54
bin	31799.848079738	53
bin	33851.251837555	35
bin	35902.655595371	33
bin	37954.059353187	58
bin	40005.463111004	53
bin	42056.86686882	36
bin	44108.270626637	49
bin	46159.674384453	1171
scalar scenarioPRJP1.node[56].lo0.lo 	droppedPkBitError:count 	0
attr interpolationmode  none
attr source  dropPkBitError
attr title  "packets dropped/bit error, count"
scalar scenarioPRJP1.node[56].lo0.lo 	droppedPkBitError:sum(packetBytes) 	0
attr interpolationmode  none
attr source  dropPkBitError
attr title  "packets dropped/bit error, sum(packetBytes)"
scalar scenarioPRJP1.node[56].lo0.lo 	rcvdPkFromHL:count 	9
attr interpolationmode  none
attr source  packetReceivedFromUpper
attr title  "packets received from higher layer, count"
scalar scenarioPRJP1.node[56].lo0.lo 	rcvdPkFromHL:sum(packetBytes) 	504
attr interpolationmode  none
attr source  packetReceivedFromUpper
attr title  "packets received from higher layer, sum(packetBytes)"
scalar scenarioPRJP1.node[56].lo0.lo 	passedUpPk:count 	9
attr interpolationmode  none
attr source  packetSentToUpper
attr title  "packets passed to higher layer, count"
scalar scenarioPRJP1.node[56].lo0.lo 	passedUpPk:sum(packetBytes) 	504
attr interpolationmode  none
attr source  packetSentToUpper
attr title  "packets passed to higher layer, sum(packetBytes)"
scalar scenarioPRJP1.node[70].app 	"Total sent" 	2599
scalar scenarioPRJP1.node[70].app 	"Total received" 	164
scalar scenarioPRJP1.node[70].app 	"Total deleted" 	0
scalar scenarioPRJP1.node[70].app 	dropPk:count 	0
attr interpolationmode  none
attr source  dropPk
attr title  "packets dropped, count"
scalar scenarioPRJP1.node[70].app 	dropPk:sum(packetBytes) 	0
attr interpolationmode  none
attr source  dropPk
attr title  "packets dropped, sum(packetBytes)"
scalar scenarioPRJP1.node[70].app 	outOfOrderPk:count 	3
attr interpolationmode  none
attr source  outOfOrderPk
attr title  "packets received out of order, count"
scalar scenarioPRJP1.node[70].app 	outOfOrderPk:sum(packetBytes) 	1536
attr interpolationmode  none
attr source  outOfOrderPk
attr title  "packets received out of order, sum(packetBytes)"
scalar scenarioPRJP1.node[70].app 	rcvdPk:count 	164
attr interpolationmode  none
attr source  rcvdPk
attr title  "packets received, count"
scalar scenarioPRJP1.node[70].app 	rcvdPk:sum(packetBytes) 	83968
attr interpolationmode  none
attr source  rcvdPk
attr title  "packets received, sum(packetBytes)"
statistic scenarioPRJP1.node[70].app 	endToEndDelay:histogram
field count 164
field mean 0.074242585330262
field stddev 0.27830476207188
field sum 12.175783994163
field sqrsum 13.528888798627
field min 0.000945068821
field max 2.252620475591
attr interpolationmode  none
attr source  messageAge(rcvdPk)
attr title  "delay, histogram"
attr unit  s
bin	-INF	0
bin	-1.124892634564	0
bin	-0.97478094077933	0
bin	-0.82466924699467	0
bin	-0.67455755321	0
bin	-0.52444585942533	0
bin	-0.37433416564067	0
bin	-0.224222471856	0
bin	-0.074110778071333	153
bin	0.076000915713333	1
bin	0.226112609498	1
bin	0.37622430328267	0
bin	0.52633599706733	0
bin	0.676447690852	0
bin	0.82655938463667	1
bin	0.97667107842133	7
bin	1.126782772206	0
bin	1.2768944659907	0
bin	1.4270061597753	0
bin	1.57711785356	0
bin	1.7272295473447	0
bin	1.8773412411293	0
bin	2.027452934914	0
bin	2.1775646286987	1
bin	2.3276763224833	0
bin	2.477788016268	0
bin	2.6278997100527	0
bin	2.7780114038373	0
bin	2.928123097622	0
bin	3.0782347914067	0
bin	3.2283464851913	0
bin	3.378458178976	0
scalar scenarioPRJP1.node[70].app 	sentPk:count 	2599
attr interpolationmode  none
attr source  sentPk
attr title  "packets sent, count"
scalar scenarioPRJP1.node[70].app 	sentPk:sum(packetBytes) 	1330688
attr interpolationmode  none
attr source  sentPk
attr title  "packets sent, sum(packetBytes)"
scalar scenarioPRJP1.node[70].udp 	droppedPkBadChecksum:count 	0
attr interpolationmode  none
attr title  "packets dropped (checksum error), count"
scalar scenarioPRJP1.node[70].udp 	droppedPkWrongPort:count 	0
attr interpolationmode  none
attr title  "packets dropped (wrong port), count"
scalar scenarioPRJP1.node[70].udp 	passedUpPk:count 	167
attr interpolationmode  none
attr title  "packets passed up, count"
scalar scenarioPRJP1.node[70].udp 	rcvdPk:count 	167
attr interpolationmode  none
attr source  rcvdPk
attr title  "packets received, count"
scalar scenarioPRJP1.node[70].udp 	rcvdPk:sum(packetBytes) 	86840
attr interpolationmode  none
attr source  rcvdPk
attr title  "packets received, sum(packetBytes)"
scalar scenarioPRJP1.node[70].udp 	sentPk:count 	2599
attr interpolationmode  none
attr source  sentPk
attr title  "packets sent, count"
scalar scenarioPRJP1.node[70].udp 	sentPk:sum(packetBytes) 	1351480
attr interpolationmode  none
attr source  sentPk
attr title  "packets sent, sum(packetBytes)"
scalar scenarioPRJP1.node[70].networkLayer.arp 	failedARPResolution:count 	6
attr title  "ARP failed resolutions, count"
scalar scenarioPRJP1.node[70].networkLayer.arp 	completedARPResolution:count 	377
attr title  "ARP completed resolutions, count"
scalar scenarioPRJP1.node[70].networkLayer.arp 	initiatedARPResolution:count 	59
attr title  "ARP initiated resolutions, count"
scalar scenarioPRJP1.node[70].networkLayer.arp 	sentReply:count 	34
attr title  "ARP replies sent, count"
scalar scenarioPRJP1.node[70].networkLayer.arp 	sentReq:count 	87
attr title  "ARP request sent, count"
scalar scenarioPRJP1.node[70].mobility 	startTime 	7.3
scalar scenarioPRJP1.node[70].mobility 	totalTime 	942.7
scalar scenarioPRJP1.node[70].mobility 	stopTime 	950
scalar scenarioPRJP1.node[70].mobility 	minSpeed 	2.4755374243624e-13
scalar scenarioPRJP1.node[70].mobility 	maxSpeed 	17.474015395415
scalar scenarioPRJP1.node[70].mobility 	totalDistance 	9347.0140846015
scalar scenarioPRJP1.node[70].mobility 	totalCO2Emission 	2440.8883587246
scalar scenarioPRJP1.node[70].wlan.mgmt 	dataQueueLen:max 	1
attr interpolationmode  sample-hold
attr title  "data queue length, max"
scalar scenarioPRJP1.node[70].wlan.mgmt 	dataQueueLen:timeavg 	0
attr interpolationmode  sample-hold
attr title  "data queue length, timeavg"
scalar scenarioPRJP1.node[70].wlan.mgmt 	dropPkByQueue:count 	0
attr interpolationmode  none
attr source  dropPkByQueue
attr title  "packets dropped by queue, count"
scalar scenarioPRJP1.node[70].wlan.mgmt 	dropPkByQueue:sum(packetBytes) 	0
attr interpolationmode  none
attr source  dropPkByQueue
attr title  "packets dropped by queue, sum(packetBytes)"
scalar scenarioPRJP1.node[70].wlan.mac 	"number of received packets" 	1093
scalar scenarioPRJP1.node[70].wlan.mac 	"number of collisions" 	3984
scalar scenarioPRJP1.node[70].wlan.mac 	"number of internal collisions" 	0
scalar scenarioPRJP1.node[70].wlan.mac 	"number of retry for AC 0" 	1637
scalar scenarioPRJP1.node[70].wlan.mac 	"number of retry for AC 1" 	42
scalar scenarioPRJP1.node[70].wlan.mac 	"number of retry for AC 2" 	0
scalar scenarioPRJP1.node[70].wlan.mac 	"number of retry for AC 3" 	0
scalar scenarioPRJP1.node[70].wlan.mac 	"sent and received bits" 	22478624
scalar scenarioPRJP1.node[70].wlan.mac 	"sent packet within AC 0" 	483
scalar scenarioPRJP1.node[70].wlan.mac 	"sent packet within AC 1" 	26
scalar scenarioPRJP1.node[70].wlan.mac 	"sent packet within AC 2" 	0
scalar scenarioPRJP1.node[70].wlan.mac 	"sent packet within AC 3" 	0
scalar scenarioPRJP1.node[70].wlan.mac 	"sent in TXOP " 	0
scalar scenarioPRJP1.node[70].wlan.mac 	"sentWithoutRetry AC 0" 	448
scalar scenarioPRJP1.node[70].wlan.mac 	"sentWithoutRetry AC 1" 	26
scalar scenarioPRJP1.node[70].wlan.mac 	"sentWithoutRetry AC 2" 	0
scalar scenarioPRJP1.node[70].wlan.mac 	"sentWithoutRetry AC 3" 	0
scalar scenarioPRJP1.node[70].wlan.mac 	"numGivenUp AC 0" 	258
scalar scenarioPRJP1.node[70].wlan.mac 	"numGivenUp AC 1" 	7
scalar scenarioPRJP1.node[70].wlan.mac 	"numGivenUp AC 2" 	0
scalar scenarioPRJP1.node[70].wlan.mac 	"numGivenUp AC 3" 	0
scalar scenarioPRJP1.node[70].wlan.mac 	"numDropped AC 0" 	0
scalar scenarioPRJP1.node[70].wlan.mac 	"numDropped AC 1" 	0
scalar scenarioPRJP1.node[70].wlan.mac 	"numDropped AC 2" 	0
scalar scenarioPRJP1.node[70].wlan.mac 	"numDropped AC 3" 	0
scalar scenarioPRJP1.node[70].wlan.mac 	rcvdPkFromLL:count 	33372
attr interpolationmode  none
attr source  packetReceivedFromLower
attr title  "packets received from lower layer, count"
scalar scenarioPRJP1.node[70].wlan.mac 	rcvdPkFromLL:sum(packetBytes) 	19798436
attr interpolationmode  none
attr source  packetReceivedFromLower
attr title  "packets received from lower layer, sum(packetBytes)"
scalar scenarioPRJP1.node[70].wlan.mac 	sentDownPk:count 	6020
attr interpolationmode  none
attr source  packetSentToLower
attr title  "packets sent to lower layer, count"
scalar scenarioPRJP1.node[70].wlan.mac 	sentDownPk:sum(packetBytes) 	3837190
attr interpolationmode  none
attr source  packetSentToLower
attr title  "packets sent to lower layer, sum(packetBytes)"
scalar scenarioPRJP1.node[70].wlan.mac 	rcvdPkFromHL:count 	3248
attr interpolationmode  none
attr source  packetReceivedFromUpper
attr title  "packets received from higher layer, count"
scalar scenarioPRJP1.node[70].wlan.mac 	rcvdPkFromHL:sum(packetBytes) 	2947304
attr interpolationmode  none
attr source  packetReceivedFromUpper
attr title  "packets received from higher layer, sum(packetBytes)"
scalar scenarioPRJP1.node[70].wlan.mac 	passedUpPk:count 	11899
attr interpolationmode  none
attr source  packetSentToUpper
attr title  "packets passed to higher layer, count"
scalar scenarioPRJP1.node[70].wlan.mac 	passedUpPk:sum(packetBytes) 	11858652
attr interpolationmode  none
attr source  packetSentToUpper
attr title  "packets passed to higher layer, sum(packetBytes)"
statistic scenarioPRJP1.node[70].wlan.radio 	radioChannel:histogram
field count 1
field mean 3
field stddev nan
field sum 3
field sqrsum 9
field min 3
field max 3
attr interpolationmode  sample-hold
attr source  radioChannelChanged
attr title  "Radio channel, histogram"
bin	-INF	0
bin	2	0
bin	3	1
bin	4	0
scalar scenarioPRJP1.node[70].wlan.radio 	transmissionState:count 	24080
attr interpolationmode  sample-hold
attr source  transmissionStateChanged
attr title  "Radio transmission state, count"
scalar scenarioPRJP1.node[70].wlan.radio 	receptionState:count 	79152
attr interpolationmode  sample-hold
attr source  receptionStateChanged
attr title  "Radio reception state, count"
scalar scenarioPRJP1.node[70].wlan.radio 	radioMode:count 	12042
attr interpolationmode  sample-hold
attr source  radioModeChanged
attr title  "Radio mode, count"
statistic scenarioPRJP1.node[70].wlan.radio 	symbolErrorRate:histogram
field count 0
field mean nan
field stddev nan
field sum 0
field sqrsum 0
field min nan
field max nan
attr source  symbolErrorRate
attr title  "Symbol error rate, histogram"
bin	-INF	0
bin	-0.5	0
bin	-0.46666666666667	0
bin	-0.43333333333333	0
bin	-0.4	0
bin	-0.36666666666667	0
bin	-0.33333333333333	0
bin	-0.3	0
bin	-0.26666666666667	0
bin	-0.23333333333333	0
bin	-0.2	0
bin	-0.16666666666667	0
bin	-0.13333333333333	0
bin	-0.1	0
bin	-0.066666666666667	0
bin	-0.033333333333333	0
bin	0	0
bin	0.033333333333333	0
bin	0.066666666666667	0
bin	0.1	0
bin	0.13333333333333	0
bin	0.16666666666667	0
bin	0.2	0
bin	0.23333333333333	0
bin	0.26666666666667	0
bin	0.3	0
bin	0.33333333333333	0
bin	0.36666666666667	0
bin	0.4	0
bin	0.43333333333333	0
bin	0.46666666666667	0
bin	0.5	0
statistic scenarioPRJP1.node[70].wlan.radio 	bitErrorRate:histogram
field count 0
field mean nan
field stddev nan
field sum 0
field sqrsum 0
field min nan
field max nan
attr source  bitErrorRate
attr title  "Bit error rate, histogram"
bin	-INF	0
bin	-0.5	0
bin	-0.46666666666667	0
bin	-0.43333333333333	0
bin	-0.4	0
bin	-0.36666666666667	0
bin	-0.33333333333333	0
bin	-0.3	0
bin	-0.26666666666667	0
bin	-0.23333333333333	0
bin	-0.2	0
bin	-0.16666666666667	0
bin	-0.13333333333333	0
bin	-0.1	0
bin	-0.066666666666667	0
bin	-0.033333333333333	0
bin	0	0
bin	0.033333333333333	0
bin	0.066666666666667	0
bin	0.1	0
bin	0.13333333333333	0
bin	0.16666666666667	0
bin	0.2	0
bin	0.23333333333333	0
bin	0.26666666666667	0
bin	0.3	0
bin	0.33333333333333	0
bin	0.36666666666667	0
bin	0.4	0
bin	0.43333333333333	0
bin	0.46666666666667	0
bin	0.5	0
statistic scenarioPRJP1.node[70].wlan.radio 	packetErrorRate:histogram
field count 33372
field mean 0.11214629984172
field stddev 0.30683541439973
field sum 3742.546318318
field sqrsum 3561.5246795085
field min 0
field max 1
attr source  packetErrorRate
attr title  "Packet error rate, histogram"
bin	-INF	0
bin	-1.0648146638426e-05	0
bin	-9.2283937533022e-06	0
bin	-7.8086408681788e-06	0
bin	-6.3888879830554e-06	0
bin	-4.969135097932e-06	0
bin	-3.5493822128085e-06	0
bin	-2.1296293276851e-06	0
bin	-7.0987644256171e-07	26497
bin	7.0987644256171e-07	207
bin	2.1296293276851e-06	105
bin	3.5493822128085e-06	75
bin	4.969135097932e-06	41
bin	6.3888879830554e-06	44
bin	7.8086408681788e-06	20
bin	9.2283937533022e-06	30
bin	1.0648146638426e-05	25
bin	1.2067899523549e-05	29
bin	1.3487652408672e-05	27
bin	1.4907405293796e-05	16
bin	1.6327158178919e-05	25
bin	1.7746911064043e-05	14
bin	1.9166663949166e-05	20
bin	2.058641683429e-05	19
bin	2.2006169719413e-05	10
bin	2.3425922604536e-05	12
bin	2.484567548966e-05	15
bin	2.6265428374783e-05	12
bin	2.7685181259907e-05	16
bin	2.910493414503e-05	16
bin	3.0524687030153e-05	4
bin	3.1944439915277e-05	6093
statistic scenarioPRJP1.node[70].wlan.radio 	minSNIR:histogram
field count 33372
field mean 8584.1774697282
field stddev 65312.467519466
field sum 286471170.51977
field sqrsum 1.4481040854399e+14
field min 0.00046149585316009
field max 1028522.2284852
attr source  minSNIR
attr title  "Min SNIR, histogram"
bin	-INF	0
bin	-4334.7699015015	0
bin	-3756.2819202232	0
bin	-3177.7939389448	0
bin	-2599.3059576665	0
bin	-2020.8179763881	0
bin	-1442.3299951098	0
bin	-863.84201383141	0
bin	-285.35403255305	24064
bin	293.13394872531	3413
bin	871.62193000366	994
bin	1450.109911282	731
bin	2028.5978925604	342
bin	2607.0858738387	287
bin	3185.5738551171	183
bin	3764.0618363954	142
bin	4342.5498176738	170
bin	4921.0377989522	167
bin	5499.5257802305	125
bin	6078.0137615089	82
bin	6656.5017427872	93
bin	7234.9897240656	104
bin	7813.4777053439	90
bin	8391.9656866223	97
bin	8970.4536679007	85
bin	9548.941649179	62
bin	10127.429630457	49
bin	10705.917611736	61
bin	11284.405593014	71
bin	11862.893574292	137
bin	12441.381555571	83
bin	13019.869536849	1740
scalar scenarioPRJP1.node[70].lo0.lo 	droppedPkBitError:count 	0
attr interpolationmode  none
attr source  dropPkBitError
attr title  "packets dropped/bit error, count"
scalar scenarioPRJP1.node[70].lo0.lo 	droppedPkBitError:sum(packetBytes) 	0
attr interpolationmode  none
attr source  dropPkBitError
attr title  "packets dropped/bit error, sum(packetBytes)"
scalar scenarioPRJP1.node[70].lo0.lo 	rcvdPkFromHL:count 	3
attr interpolationmode  none
attr source  packetReceivedFromUpper
attr title  "packets received from higher layer, count"
scalar scenarioPRJP1.node[70].lo0.lo 	rcvdPkFromHL:sum(packetBytes) 	168
attr interpolationmode  none
attr source  packetReceivedFromUpper
attr title  "packets received from higher layer, sum(packetBytes)"
scalar scenarioPRJP1.node[70].lo0.lo 	passedUpPk:count 	3
attr interpolationmode  none
attr source  packetSentToUpper
attr title  "packets passed to higher layer, count"
scalar scenarioPRJP1.node[70].lo0.lo 	passedUpPk:sum(packetBytes) 	168
attr interpolationmode  none
attr source  packetSentToUpper
attr title  "packets passed to higher layer, sum(packetBytes)"
