version 2
run OLSR-ETX-FS-75n-19-20150729-15:44:29-8602
attr configname OLSR-ETX-FS-75n
attr datetime 20150729-15:44:29
attr experiment OLSR-ETX-FS-75n
attr inifile omnetpp.ini
attr iterationvars ""
attr iterationvars2 $repetition=19
attr measurement ""
attr network Prj_Part1_propag.scenarioPRJP1
attr processid 8602
attr repetition 19
attr replication #19
attr resultdir results
attr runnumber 19
attr seedset 19

scalar scenarioPRJP1.radioMedium.propagation 	"Arrival computation count" 	38496649
scalar scenarioPRJP1.radioMedium 	"transmission count" 	520325
scalar scenarioPRJP1.radioMedium 	"radio frame send count" 	38496623
scalar scenarioPRJP1.radioMedium 	"reception computation count" 	38246810
scalar scenarioPRJP1.radioMedium 	"interference computation count" 	106732486
scalar scenarioPRJP1.radioMedium 	"reception decision computation count" 	2719555
scalar scenarioPRJP1.radioMedium 	"listening decision computation count" 	66265126
scalar scenarioPRJP1.radioMedium 	"reception cache hit" 	85.14410197507
attr unit  %
scalar scenarioPRJP1.radioMedium 	"interference cache hit" 	50
attr unit  %
scalar scenarioPRJP1.radioMedium 	"noise cache hit" 	0
attr unit  %
scalar scenarioPRJP1.radioMedium 	"snir cache hit" 	0
attr unit  %
scalar scenarioPRJP1.radioMedium 	"reception decision cache hit" 	0
attr unit  %
scalar scenarioPRJP1.node[0].app 	"Total sent" 	2610
scalar scenarioPRJP1.node[0].app 	"Total received" 	187
scalar scenarioPRJP1.node[0].app 	"Total deleted" 	0
scalar scenarioPRJP1.node[0].app 	dropPk:count 	0
attr interpolationmode  none
attr source  dropPk
attr title  "packets dropped, count"
scalar scenarioPRJP1.node[0].app 	dropPk:sum(packetBytes) 	0
attr interpolationmode  none
attr source  dropPk
attr title  "packets dropped, sum(packetBytes)"
scalar scenarioPRJP1.node[0].app 	outOfOrderPk:count 	0
attr interpolationmode  none
attr source  outOfOrderPk
attr title  "packets received out of order, count"
scalar scenarioPRJP1.node[0].app 	outOfOrderPk:sum(packetBytes) 	0
attr interpolationmode  none
attr source  outOfOrderPk
attr title  "packets received out of order, sum(packetBytes)"
scalar scenarioPRJP1.node[0].app 	rcvdPk:count 	187
attr interpolationmode  none
attr source  rcvdPk
attr title  "packets received, count"
scalar scenarioPRJP1.node[0].app 	rcvdPk:sum(packetBytes) 	95744
attr interpolationmode  none
attr source  rcvdPk
attr title  "packets received, sum(packetBytes)"
statistic scenarioPRJP1.node[0].app 	endToEndDelay:histogram
field count 187
field mean 0.099596149592262
field stddev 0.34646637400218
field sum 18.624479973753
field sqrsum 24.182170879989
field min 0.000945013259
field max 2.06400064055
attr interpolationmode  none
attr source  messageAge(rcvdPk)
attr title  "delay, histogram"
attr unit  s
bin	-INF	0
bin	-1.030582761442	0
bin	-0.89304572135347	0
bin	-0.75550868126493	0
bin	-0.6179716411764	0
bin	-0.48043460108787	0
bin	-0.34289756099933	0
bin	-0.2053605209108	0
bin	-0.067823480822267	171
bin	0.069713559266267	2
bin	0.2072505993548	0
bin	0.34478763944333	0
bin	0.48232467953187	0
bin	0.6198617196204	0
bin	0.75739875970893	2
bin	0.89493579979747	7
bin	1.032472839886	1
bin	1.1700098799745	0
bin	1.3075469200631	0
bin	1.4450839601516	1
bin	1.5826210002401	0
bin	1.7201580403287	0
bin	1.8576950804172	0
bin	1.9952321205057	3
bin	2.1327691605943	0
bin	2.2703062006828	0
bin	2.4078432407713	0
bin	2.5453802808599	0
bin	2.6829173209484	0
bin	2.8204543610369	0
bin	2.9579914011255	0
bin	3.095528441214	0
scalar scenarioPRJP1.node[0].app 	sentPk:count 	2610
attr interpolationmode  none
attr source  sentPk
attr title  "packets sent, count"
scalar scenarioPRJP1.node[0].app 	sentPk:sum(packetBytes) 	1336320
attr interpolationmode  none
attr source  sentPk
attr title  "packets sent, sum(packetBytes)"
scalar scenarioPRJP1.node[0].udp 	droppedPkBadChecksum:count 	0
attr interpolationmode  none
attr title  "packets dropped (checksum error), count"
scalar scenarioPRJP1.node[0].udp 	droppedPkWrongPort:count 	0
attr interpolationmode  none
attr title  "packets dropped (wrong port), count"
scalar scenarioPRJP1.node[0].udp 	passedUpPk:count 	187
attr interpolationmode  none
attr title  "packets passed up, count"
scalar scenarioPRJP1.node[0].udp 	rcvdPk:count 	187
attr interpolationmode  none
attr source  rcvdPk
attr title  "packets received, count"
scalar scenarioPRJP1.node[0].udp 	rcvdPk:sum(packetBytes) 	97240
attr interpolationmode  none
attr source  rcvdPk
attr title  "packets received, sum(packetBytes)"
scalar scenarioPRJP1.node[0].udp 	sentPk:count 	2610
attr interpolationmode  none
attr source  sentPk
attr title  "packets sent, count"
scalar scenarioPRJP1.node[0].udp 	sentPk:sum(packetBytes) 	1357200
attr interpolationmode  none
attr source  sentPk
attr title  "packets sent, sum(packetBytes)"
scalar scenarioPRJP1.node[0].networkLayer.arp 	failedARPResolution:count 	2
attr title  "ARP failed resolutions, count"
scalar scenarioPRJP1.node[0].networkLayer.arp 	completedARPResolution:count 	418
attr title  "ARP completed resolutions, count"
scalar scenarioPRJP1.node[0].networkLayer.arp 	initiatedARPResolution:count 	48
attr title  "ARP initiated resolutions, count"
scalar scenarioPRJP1.node[0].networkLayer.arp 	sentReply:count 	50
attr title  "ARP replies sent, count"
scalar scenarioPRJP1.node[0].networkLayer.arp 	sentReq:count 	71
attr title  "ARP request sent, count"
scalar scenarioPRJP1.node[0].mobility 	startTime 	0.1
scalar scenarioPRJP1.node[0].mobility 	totalTime 	949.9
scalar scenarioPRJP1.node[0].mobility 	stopTime 	950
scalar scenarioPRJP1.node[0].mobility 	minSpeed 	2.4757078201045e-13
scalar scenarioPRJP1.node[0].mobility 	maxSpeed 	17.318644009547
scalar scenarioPRJP1.node[0].mobility 	totalDistance 	8169.2752313582
scalar scenarioPRJP1.node[0].mobility 	totalCO2Emission 	2394.0247772986
scalar scenarioPRJP1.node[0].wlan.mgmt 	dataQueueLen:max 	1
attr interpolationmode  sample-hold
attr title  "data queue length, max"
scalar scenarioPRJP1.node[0].wlan.mgmt 	dataQueueLen:timeavg 	0
attr interpolationmode  sample-hold
attr title  "data queue length, timeavg"
scalar scenarioPRJP1.node[0].wlan.mgmt 	dropPkByQueue:count 	0
attr interpolationmode  none
attr source  dropPkByQueue
attr title  "packets dropped by queue, count"
scalar scenarioPRJP1.node[0].wlan.mgmt 	dropPkByQueue:sum(packetBytes) 	0
attr interpolationmode  none
attr source  dropPkByQueue
attr title  "packets dropped by queue, sum(packetBytes)"
scalar scenarioPRJP1.node[0].wlan.mac 	"number of received packets" 	1606
scalar scenarioPRJP1.node[0].wlan.mac 	"number of collisions" 	3301
scalar scenarioPRJP1.node[0].wlan.mac 	"number of internal collisions" 	2
scalar scenarioPRJP1.node[0].wlan.mac 	"number of retry for AC 0" 	1846
scalar scenarioPRJP1.node[0].wlan.mac 	"number of retry for AC 1" 	21
scalar scenarioPRJP1.node[0].wlan.mac 	"number of retry for AC 2" 	0
scalar scenarioPRJP1.node[0].wlan.mac 	"number of retry for AC 3" 	0
scalar scenarioPRJP1.node[0].wlan.mac 	"sent and received bits" 	25188896
scalar scenarioPRJP1.node[0].wlan.mac 	"sent packet within AC 0" 	901
scalar scenarioPRJP1.node[0].wlan.mac 	"sent packet within AC 1" 	34
scalar scenarioPRJP1.node[0].wlan.mac 	"sent packet within AC 2" 	0
scalar scenarioPRJP1.node[0].wlan.mac 	"sent packet within AC 3" 	0
scalar scenarioPRJP1.node[0].wlan.mac 	"sent in TXOP " 	0
scalar scenarioPRJP1.node[0].wlan.mac 	"sentWithoutRetry AC 0" 	846
scalar scenarioPRJP1.node[0].wlan.mac 	"sentWithoutRetry AC 1" 	32
scalar scenarioPRJP1.node[0].wlan.mac 	"sentWithoutRetry AC 2" 	0
scalar scenarioPRJP1.node[0].wlan.mac 	"sentWithoutRetry AC 3" 	0
scalar scenarioPRJP1.node[0].wlan.mac 	"numGivenUp AC 0" 	291
scalar scenarioPRJP1.node[0].wlan.mac 	"numGivenUp AC 1" 	3
scalar scenarioPRJP1.node[0].wlan.mac 	"numGivenUp AC 2" 	0
scalar scenarioPRJP1.node[0].wlan.mac 	"numGivenUp AC 3" 	0
scalar scenarioPRJP1.node[0].wlan.mac 	"numDropped AC 0" 	0
scalar scenarioPRJP1.node[0].wlan.mac 	"numDropped AC 1" 	0
scalar scenarioPRJP1.node[0].wlan.mac 	"numDropped AC 2" 	0
scalar scenarioPRJP1.node[0].wlan.mac 	"numDropped AC 3" 	0
scalar scenarioPRJP1.node[0].wlan.mac 	rcvdPkFromLL:count 	36864
attr interpolationmode  none
attr source  packetReceivedFromLower
attr title  "packets received from lower layer, count"
scalar scenarioPRJP1.node[0].wlan.mac 	rcvdPkFromLL:sum(packetBytes) 	21253518
attr interpolationmode  none
attr source  packetReceivedFromLower
attr title  "packets received from lower layer, sum(packetBytes)"
scalar scenarioPRJP1.node[0].wlan.mac 	sentDownPk:count 	7258
attr interpolationmode  none
attr source  packetSentToLower
attr title  "packets sent to lower layer, count"
scalar scenarioPRJP1.node[0].wlan.mac 	sentDownPk:sum(packetBytes) 	4303224
attr interpolationmode  none
attr source  packetSentToLower
attr title  "packets sent to lower layer, sum(packetBytes)"
scalar scenarioPRJP1.node[0].wlan.mac 	rcvdPkFromHL:count 	3787
attr interpolationmode  none
attr source  packetReceivedFromUpper
attr title  "packets received from higher layer, count"
scalar scenarioPRJP1.node[0].wlan.mac 	rcvdPkFromHL:sum(packetBytes) 	3302680
attr interpolationmode  none
attr source  packetReceivedFromUpper
attr title  "packets received from higher layer, sum(packetBytes)"
scalar scenarioPRJP1.node[0].wlan.mac 	passedUpPk:count 	13017
attr interpolationmode  none
attr source  packetSentToUpper
attr title  "packets passed to higher layer, count"
scalar scenarioPRJP1.node[0].wlan.mac 	passedUpPk:sum(packetBytes) 	12774584
attr interpolationmode  none
attr source  packetSentToUpper
attr title  "packets passed to higher layer, sum(packetBytes)"
statistic scenarioPRJP1.node[0].wlan.radio 	radioChannel:histogram
field count 1
field mean 3
field stddev nan
field sum 3
field sqrsum 9
field min 3
field max 3
attr interpolationmode  sample-hold
attr source  radioChannelChanged
attr title  "Radio channel, histogram"
bin	-INF	0
bin	2	0
bin	3	1
bin	4	0
scalar scenarioPRJP1.node[0].wlan.radio 	transmissionState:count 	29032
attr interpolationmode  sample-hold
attr source  transmissionStateChanged
attr title  "Radio transmission state, count"
scalar scenarioPRJP1.node[0].wlan.radio 	receptionState:count 	88624
attr interpolationmode  sample-hold
attr source  receptionStateChanged
attr title  "Radio reception state, count"
scalar scenarioPRJP1.node[0].wlan.radio 	radioMode:count 	14518
attr interpolationmode  sample-hold
attr source  radioModeChanged
attr title  "Radio mode, count"
statistic scenarioPRJP1.node[0].wlan.radio 	symbolErrorRate:histogram
field count 0
field mean nan
field stddev nan
field sum 0
field sqrsum 0
field min nan
field max nan
attr source  symbolErrorRate
attr title  "Symbol error rate, histogram"
bin	-INF	0
bin	-0.5	0
bin	-0.46666666666667	0
bin	-0.43333333333333	0
bin	-0.4	0
bin	-0.36666666666667	0
bin	-0.33333333333333	0
bin	-0.3	0
bin	-0.26666666666667	0
bin	-0.23333333333333	0
bin	-0.2	0
bin	-0.16666666666667	0
bin	-0.13333333333333	0
bin	-0.1	0
bin	-0.066666666666667	0
bin	-0.033333333333333	0
bin	0	0
bin	0.033333333333333	0
bin	0.066666666666667	0
bin	0.1	0
bin	0.13333333333333	0
bin	0.16666666666667	0
bin	0.2	0
bin	0.23333333333333	0
bin	0.26666666666667	0
bin	0.3	0
bin	0.33333333333333	0
bin	0.36666666666667	0
bin	0.4	0
bin	0.43333333333333	0
bin	0.46666666666667	0
bin	0.5	0
statistic scenarioPRJP1.node[0].wlan.radio 	bitErrorRate:histogram
field count 0
field mean nan
field stddev nan
field sum 0
field sqrsum 0
field min nan
field max nan
attr source  bitErrorRate
attr title  "Bit error rate, histogram"
bin	-INF	0
bin	-0.5	0
bin	-0.46666666666667	0
bin	-0.43333333333333	0
bin	-0.4	0
bin	-0.36666666666667	0
bin	-0.33333333333333	0
bin	-0.3	0
bin	-0.26666666666667	0
bin	-0.23333333333333	0
bin	-0.2	0
bin	-0.16666666666667	0
bin	-0.13333333333333	0
bin	-0.1	0
bin	-0.066666666666667	0
bin	-0.033333333333333	0
bin	0	0
bin	0.033333333333333	0
bin	0.066666666666667	0
bin	0.1	0
bin	0.13333333333333	0
bin	0.16666666666667	0
bin	0.2	0
bin	0.23333333333333	0
bin	0.26666666666667	0
bin	0.3	0
bin	0.33333333333333	0
bin	0.36666666666667	0
bin	0.4	0
bin	0.43333333333333	0
bin	0.46666666666667	0
bin	0.5	0
statistic scenarioPRJP1.node[0].wlan.radio 	packetErrorRate:histogram
field count 36864
field mean 0.084736421173016
field stddev 0.27117678215724
field sum 3123.7234301221
field sqrsum 2975.4819418417
field min 0
field max 1
attr source  packetErrorRate
attr title  "Packet error rate, histogram"
bin	-INF	0
bin	-0.49988416072308	0
bin	-0.43323293929334	0
bin	-0.36658171786359	0
bin	-0.29993049643385	0
bin	-0.2332792750041	0
bin	-0.16662805357436	0
bin	-0.099976832144616	0
bin	-0.033325610714872	33147
bin	0.033325610714872	243
bin	0.099976832144616	115
bin	0.16662805357436	72
bin	0.2332792750041	61
bin	0.29993049643385	52
bin	0.36658171786359	43
bin	0.43323293929334	47
bin	0.49988416072308	44
bin	0.56653538215282	36
bin	0.63318660358257	53
bin	0.69983782501231	35
bin	0.76648904644206	46
bin	0.8331402678718	53
bin	0.89979148930155	81
bin	0.96644271073129	2736
bin	1.033093932161	0
bin	1.0997451535908	0
bin	1.1663963750205	0
bin	1.2330475964503	0
bin	1.29969881788	0
bin	1.3663500393098	0
bin	1.4330012607395	0
bin	1.4996524821692	0
statistic scenarioPRJP1.node[0].wlan.radio 	minSNIR:histogram
field count 36864
field mean 13538.286098068
field stddev 77333.712900788
field sum 499075378.71919
field sqrsum 2.2721591291771e+14
field min 0.00041132570113727
field max 753239.71923443
attr source  minSNIR
attr title  "Min SNIR, histogram"
bin	-INF	0
bin	-7227.3869532317	0
bin	-6263.4927771588	0
bin	-5299.5986010858	0
bin	-4335.7044250129	0
bin	-3371.8102489399	0
bin	-2407.9160728669	0
bin	-1444.021896794	0
bin	-480.12772072102	25359
bin	483.76645535195	3529
bin	1447.6606314249	1345
bin	2411.5548074979	857
bin	3375.4489835708	438
bin	4339.3431596438	314
bin	5303.2373357168	291
bin	6267.1315117897	231
bin	7231.0256878627	224
bin	8194.9198639356	160
bin	9158.8140400086	162
bin	10122.708216082	130
bin	11086.602392155	168
bin	12050.496568227	198
bin	13014.3907443	101
bin	13978.284920373	172
bin	14942.179096446	111
bin	15906.073272519	73
bin	16869.967448592	143
bin	17833.861624665	93
bin	18797.755800738	129
bin	19761.649976811	117
bin	20725.544152884	84
bin	21689.438328957	2435
scalar scenarioPRJP1.node[0].lo0.lo 	droppedPkBitError:count 	0
attr interpolationmode  none
attr source  dropPkBitError
attr title  "packets dropped/bit error, count"
scalar scenarioPRJP1.node[0].lo0.lo 	droppedPkBitError:sum(packetBytes) 	0
attr interpolationmode  none
attr source  dropPkBitError
attr title  "packets dropped/bit error, sum(packetBytes)"
scalar scenarioPRJP1.node[0].lo0.lo 	rcvdPkFromHL:count 	14
attr interpolationmode  none
attr source  packetReceivedFromUpper
attr title  "packets received from higher layer, count"
scalar scenarioPRJP1.node[0].lo0.lo 	rcvdPkFromHL:sum(packetBytes) 	784
attr interpolationmode  none
attr source  packetReceivedFromUpper
attr title  "packets received from higher layer, sum(packetBytes)"
scalar scenarioPRJP1.node[0].lo0.lo 	passedUpPk:count 	14
attr interpolationmode  none
attr source  packetSentToUpper
attr title  "packets passed to higher layer, count"
scalar scenarioPRJP1.node[0].lo0.lo 	passedUpPk:sum(packetBytes) 	784
attr interpolationmode  none
attr source  packetSentToUpper
attr title  "packets passed to higher layer, sum(packetBytes)"
scalar scenarioPRJP1.node[20].app 	"Total sent" 	2615
scalar scenarioPRJP1.node[20].app 	"Total received" 	162
scalar scenarioPRJP1.node[20].app 	"Total deleted" 	0
scalar scenarioPRJP1.node[20].app 	dropPk:count 	0
attr interpolationmode  none
attr source  dropPk
attr title  "packets dropped, count"
scalar scenarioPRJP1.node[20].app 	dropPk:sum(packetBytes) 	0
attr interpolationmode  none
attr source  dropPk
attr title  "packets dropped, sum(packetBytes)"
scalar scenarioPRJP1.node[20].app 	outOfOrderPk:count 	0
attr interpolationmode  none
attr source  outOfOrderPk
attr title  "packets received out of order, count"
scalar scenarioPRJP1.node[20].app 	outOfOrderPk:sum(packetBytes) 	0
attr interpolationmode  none
attr source  outOfOrderPk
attr title  "packets received out of order, sum(packetBytes)"
scalar scenarioPRJP1.node[20].app 	rcvdPk:count 	162
attr interpolationmode  none
attr source  rcvdPk
attr title  "packets received, count"
scalar scenarioPRJP1.node[20].app 	rcvdPk:sum(packetBytes) 	82944
attr interpolationmode  none
attr source  rcvdPk
attr title  "packets received, sum(packetBytes)"
statistic scenarioPRJP1.node[20].app 	endToEndDelay:histogram
field count 162
field mean 0.11315525264567
field stddev 0.34619238008492
field sum 18.331150928599
field sqrsum 21.369981423258
field min 0.000945022685
field max 2.023283492766
attr interpolationmode  none
attr source  messageAge(rcvdPk)
attr title  "delay, histogram"
attr unit  s
bin	-INF	0
bin	-1.0102242123555	0
bin	-0.87540164768343	0
bin	-0.74057908301137	0
bin	-0.6057565183393	0
bin	-0.47093395366723	0
bin	-0.33611138899517	0
bin	-0.2012888243231	0
bin	-0.066466259651033	144
bin	0.068356305021033	1
bin	0.2031788696931	3
bin	0.33800143436517	0
bin	0.47282399903723	1
bin	0.6076465637093	0
bin	0.74246912838137	1
bin	0.87729169305343	2
bin	1.0121142577255	7
bin	1.1469368223976	0
bin	1.2817593870696	0
bin	1.4165819517417	1
bin	1.5514045164138	0
bin	1.6862270810858	0
bin	1.8210496457579	0
bin	1.95587221043	2
bin	2.090694775102	0
bin	2.2255173397741	0
bin	2.3603399044462	0
bin	2.4951624691182	0
bin	2.6299850337903	0
bin	2.7648075984624	0
bin	2.8996301631344	0
bin	3.0344527278065	0
scalar scenarioPRJP1.node[20].app 	sentPk:count 	2615
attr interpolationmode  none
attr source  sentPk
attr title  "packets sent, count"
scalar scenarioPRJP1.node[20].app 	sentPk:sum(packetBytes) 	1338880
attr interpolationmode  none
attr source  sentPk
attr title  "packets sent, sum(packetBytes)"
scalar scenarioPRJP1.node[20].udp 	droppedPkBadChecksum:count 	0
attr interpolationmode  none
attr title  "packets dropped (checksum error), count"
scalar scenarioPRJP1.node[20].udp 	droppedPkWrongPort:count 	0
attr interpolationmode  none
attr title  "packets dropped (wrong port), count"
scalar scenarioPRJP1.node[20].udp 	passedUpPk:count 	162
attr interpolationmode  none
attr title  "packets passed up, count"
scalar scenarioPRJP1.node[20].udp 	rcvdPk:count 	162
attr interpolationmode  none
attr source  rcvdPk
attr title  "packets received, count"
scalar scenarioPRJP1.node[20].udp 	rcvdPk:sum(packetBytes) 	84240
attr interpolationmode  none
attr source  rcvdPk
attr title  "packets received, sum(packetBytes)"
scalar scenarioPRJP1.node[20].udp 	sentPk:count 	2615
attr interpolationmode  none
attr source  sentPk
attr title  "packets sent, count"
scalar scenarioPRJP1.node[20].udp 	sentPk:sum(packetBytes) 	1359800
attr interpolationmode  none
attr source  sentPk
attr title  "packets sent, sum(packetBytes)"
scalar scenarioPRJP1.node[20].networkLayer.arp 	failedARPResolution:count 	11
attr title  "ARP failed resolutions, count"
scalar scenarioPRJP1.node[20].networkLayer.arp 	completedARPResolution:count 	439
attr title  "ARP completed resolutions, count"
scalar scenarioPRJP1.node[20].networkLayer.arp 	initiatedARPResolution:count 	65
attr title  "ARP initiated resolutions, count"
scalar scenarioPRJP1.node[20].networkLayer.arp 	sentReply:count 	41
attr title  "ARP replies sent, count"
scalar scenarioPRJP1.node[20].networkLayer.arp 	sentReq:count 	98
attr title  "ARP request sent, count"
scalar scenarioPRJP1.node[20].mobility 	startTime 	2.5
scalar scenarioPRJP1.node[20].mobility 	totalTime 	947.5
scalar scenarioPRJP1.node[20].mobility 	stopTime 	950
scalar scenarioPRJP1.node[20].mobility 	minSpeed 	2.4754678662984e-13
scalar scenarioPRJP1.node[20].mobility 	maxSpeed 	16.970146476842
scalar scenarioPRJP1.node[20].mobility 	totalDistance 	8418.46041689
scalar scenarioPRJP1.node[20].mobility 	totalCO2Emission 	2386.118631386
scalar scenarioPRJP1.node[20].wlan.mgmt 	dataQueueLen:max 	1
attr interpolationmode  sample-hold
attr title  "data queue length, max"
scalar scenarioPRJP1.node[20].wlan.mgmt 	dataQueueLen:timeavg 	0
attr interpolationmode  sample-hold
attr title  "data queue length, timeavg"
scalar scenarioPRJP1.node[20].wlan.mgmt 	dropPkByQueue:count 	0
attr interpolationmode  none
attr source  dropPkByQueue
attr title  "packets dropped by queue, count"
scalar scenarioPRJP1.node[20].wlan.mgmt 	dropPkByQueue:sum(packetBytes) 	0
attr interpolationmode  none
attr source  dropPkByQueue
attr title  "packets dropped by queue, sum(packetBytes)"
scalar scenarioPRJP1.node[20].wlan.mac 	"number of received packets" 	1851
scalar scenarioPRJP1.node[20].wlan.mac 	"number of collisions" 	4415
scalar scenarioPRJP1.node[20].wlan.mac 	"number of internal collisions" 	3
scalar scenarioPRJP1.node[20].wlan.mac 	"number of retry for AC 0" 	1985
scalar scenarioPRJP1.node[20].wlan.mac 	"number of retry for AC 1" 	53
scalar scenarioPRJP1.node[20].wlan.mac 	"number of retry for AC 2" 	0
scalar scenarioPRJP1.node[20].wlan.mac 	"number of retry for AC 3" 	0
scalar scenarioPRJP1.node[20].wlan.mac 	"sent and received bits" 	25572480
scalar scenarioPRJP1.node[20].wlan.mac 	"sent packet within AC 0" 	1118
scalar scenarioPRJP1.node[20].wlan.mac 	"sent packet within AC 1" 	51
scalar scenarioPRJP1.node[20].wlan.mac 	"sent packet within AC 2" 	0
scalar scenarioPRJP1.node[20].wlan.mac 	"sent packet within AC 3" 	0
scalar scenarioPRJP1.node[20].wlan.mac 	"sent in TXOP " 	0
scalar scenarioPRJP1.node[20].wlan.mac 	"sentWithoutRetry AC 0" 	1062
scalar scenarioPRJP1.node[20].wlan.mac 	"sentWithoutRetry AC 1" 	50
scalar scenarioPRJP1.node[20].wlan.mac 	"sentWithoutRetry AC 2" 	0
scalar scenarioPRJP1.node[20].wlan.mac 	"sentWithoutRetry AC 3" 	0
scalar scenarioPRJP1.node[20].wlan.mac 	"numGivenUp AC 0" 	312
scalar scenarioPRJP1.node[20].wlan.mac 	"numGivenUp AC 1" 	8
scalar scenarioPRJP1.node[20].wlan.mac 	"numGivenUp AC 2" 	0
scalar scenarioPRJP1.node[20].wlan.mac 	"numGivenUp AC 3" 	0
scalar scenarioPRJP1.node[20].wlan.mac 	"numDropped AC 0" 	0
scalar scenarioPRJP1.node[20].wlan.mac 	"numDropped AC 1" 	0
scalar scenarioPRJP1.node[20].wlan.mac 	"numDropped AC 2" 	0
scalar scenarioPRJP1.node[20].wlan.mac 	"numDropped AC 3" 	0
scalar scenarioPRJP1.node[20].wlan.mac 	rcvdPkFromLL:count 	36411
attr interpolationmode  none
attr source  packetReceivedFromLower
attr title  "packets received from lower layer, count"
scalar scenarioPRJP1.node[20].wlan.mac 	rcvdPkFromLL:sum(packetBytes) 	21633930
attr interpolationmode  none
attr source  packetReceivedFromLower
attr title  "packets received from lower layer, sum(packetBytes)"
scalar scenarioPRJP1.node[20].wlan.mac 	sentDownPk:count 	7888
attr interpolationmode  none
attr source  packetSentToLower
attr title  "packets sent to lower layer, count"
scalar scenarioPRJP1.node[20].wlan.mac 	sentDownPk:sum(packetBytes) 	4470070
attr interpolationmode  none
attr source  packetSentToLower
attr title  "packets sent to lower layer, sum(packetBytes)"
scalar scenarioPRJP1.node[20].wlan.mac 	rcvdPkFromHL:count 	4002
attr interpolationmode  none
attr source  packetReceivedFromUpper
attr title  "packets received from higher layer, count"
scalar scenarioPRJP1.node[20].wlan.mac 	rcvdPkFromHL:sum(packetBytes) 	3365744
attr interpolationmode  none
attr source  packetReceivedFromUpper
attr title  "packets received from higher layer, sum(packetBytes)"
scalar scenarioPRJP1.node[20].wlan.mac 	passedUpPk:count 	13582
attr interpolationmode  none
attr source  packetSentToUpper
attr title  "packets passed to higher layer, count"
scalar scenarioPRJP1.node[20].wlan.mac 	passedUpPk:sum(packetBytes) 	13189504
attr interpolationmode  none
attr source  packetSentToUpper
attr title  "packets passed to higher layer, sum(packetBytes)"
statistic scenarioPRJP1.node[20].wlan.radio 	radioChannel:histogram
field count 1
field mean 3
field stddev nan
field sum 3
field sqrsum 9
field min 3
field max 3
attr interpolationmode  sample-hold
attr source  radioChannelChanged
attr title  "Radio channel, histogram"
bin	-INF	0
bin	2	0
bin	3	1
bin	4	0
scalar scenarioPRJP1.node[20].wlan.radio 	transmissionState:count 	31552
attr interpolationmode  sample-hold
attr source  transmissionStateChanged
attr title  "Radio transmission state, count"
scalar scenarioPRJP1.node[20].wlan.radio 	receptionState:count 	89184
attr interpolationmode  sample-hold
attr source  receptionStateChanged
attr title  "Radio reception state, count"
scalar scenarioPRJP1.node[20].wlan.radio 	radioMode:count 	15778
attr interpolationmode  sample-hold
attr source  radioModeChanged
attr title  "Radio mode, count"
statistic scenarioPRJP1.node[20].wlan.radio 	symbolErrorRate:histogram
field count 0
field mean nan
field stddev nan
field sum 0
field sqrsum 0
field min nan
field max nan
attr source  symbolErrorRate
attr title  "Symbol error rate, histogram"
bin	-INF	0
bin	-0.5	0
bin	-0.46666666666667	0
bin	-0.43333333333333	0
bin	-0.4	0
bin	-0.36666666666667	0
bin	-0.33333333333333	0
bin	-0.3	0
bin	-0.26666666666667	0
bin	-0.23333333333333	0
bin	-0.2	0
bin	-0.16666666666667	0
bin	-0.13333333333333	0
bin	-0.1	0
bin	-0.066666666666667	0
bin	-0.033333333333333	0
bin	0	0
bin	0.033333333333333	0
bin	0.066666666666667	0
bin	0.1	0
bin	0.13333333333333	0
bin	0.16666666666667	0
bin	0.2	0
bin	0.23333333333333	0
bin	0.26666666666667	0
bin	0.3	0
bin	0.33333333333333	0
bin	0.36666666666667	0
bin	0.4	0
bin	0.43333333333333	0
bin	0.46666666666667	0
bin	0.5	0
statistic scenarioPRJP1.node[20].wlan.radio 	bitErrorRate:histogram
field count 0
field mean nan
field stddev nan
field sum 0
field sqrsum 0
field min nan
field max nan
attr source  bitErrorRate
attr title  "Bit error rate, histogram"
bin	-INF	0
bin	-0.5	0
bin	-0.46666666666667	0
bin	-0.43333333333333	0
bin	-0.4	0
bin	-0.36666666666667	0
bin	-0.33333333333333	0
bin	-0.3	0
bin	-0.26666666666667	0
bin	-0.23333333333333	0
bin	-0.2	0
bin	-0.16666666666667	0
bin	-0.13333333333333	0
bin	-0.1	0
bin	-0.066666666666667	0
bin	-0.033333333333333	0
bin	0	0
bin	0.033333333333333	0
bin	0.066666666666667	0
bin	0.1	0
bin	0.13333333333333	0
bin	0.16666666666667	0
bin	0.2	0
bin	0.23333333333333	0
bin	0.26666666666667	0
bin	0.3	0
bin	0.33333333333333	0
bin	0.36666666666667	0
bin	0.4	0
bin	0.43333333333333	0
bin	0.46666666666667	0
bin	0.5	0
statistic scenarioPRJP1.node[20].wlan.radio 	packetErrorRate:histogram
field count 36411
field mean 0.11468899069904
field stddev 0.3100651758146
field sum 4175.9408403429
field sqrsum 3979.4068867373
field min 0
field max 1
attr source  packetErrorRate
attr title  "Packet error rate, histogram"
bin	-INF	0
bin	-8.2740031129847e-06	0
bin	-7.17080269792e-06	0
bin	-6.0676022828554e-06	0
bin	-4.9644018677908e-06	0
bin	-3.8612014527262e-06	0
bin	-2.7580010376616e-06	0
bin	-1.6548006225969e-06	0
bin	-5.5160020753231e-07	28771
bin	5.5160020753231e-07	210
bin	1.6548006225969e-06	122
bin	2.7580010376616e-06	67
bin	3.8612014527262e-06	49
bin	4.9644018677908e-06	48
bin	6.0676022828554e-06	31
bin	7.17080269792e-06	34
bin	8.2740031129847e-06	22
bin	9.3772035280493e-06	31
bin	1.0480403943114e-05	31
bin	1.1583604358179e-05	18
bin	1.2686804773243e-05	26
bin	1.3790005188308e-05	21
bin	1.4893205603372e-05	16
bin	1.5996406018437e-05	15
bin	1.7099606433502e-05	17
bin	1.8202806848566e-05	8
bin	1.9306007263631e-05	14
bin	2.0409207678695e-05	11
bin	2.151240809376e-05	12
bin	2.2615608508825e-05	10
bin	2.3718808923889e-05	8
bin	2.4822009338954e-05	6819
statistic scenarioPRJP1.node[20].wlan.radio 	minSNIR:histogram
field count 36411
field mean 6812.2795745898
field stddev 45843.058709489
field sum 248041911.59039
field sqrsum 78208478267324
field min 0.0014142018391396
field max 753239.71923443
attr source  minSNIR
attr title  "Min SNIR, histogram"
bin	-INF	0
bin	-13223.524740816	0
bin	-11459.86343121	0
bin	-9696.2021216038	0
bin	-7932.5408119975	0
bin	-6168.8795023913	0
bin	-4405.218192785	0
bin	-2641.5568831788	0
bin	-877.89557357249	29040
bin	885.76573603377	2488
bin	2649.42704564	899
bin	4413.0883552463	570
bin	6176.7496648525	344
bin	7940.4109744588	326
bin	9704.0722840651	300
bin	11467.733593671	202
bin	13231.394903278	193
bin	14995.056212884	113
bin	16758.71752249	103
bin	18522.378832096	188
bin	20286.040141703	69
bin	22049.701451309	64
bin	23813.362760915	44
bin	25577.024070521	54
bin	27340.685380128	40
bin	29104.346689734	50
bin	30868.00799934	42
bin	32631.669308946	41
bin	34395.330618553	62
bin	36158.991928159	26
bin	37922.653237765	28
bin	39686.314547371	1125
scalar scenarioPRJP1.node[20].lo0.lo 	droppedPkBitError:count 	0
attr interpolationmode  none
attr source  dropPkBitError
attr title  "packets dropped/bit error, count"
scalar scenarioPRJP1.node[20].lo0.lo 	droppedPkBitError:sum(packetBytes) 	0
attr interpolationmode  none
attr source  dropPkBitError
attr title  "packets dropped/bit error, sum(packetBytes)"
scalar scenarioPRJP1.node[20].lo0.lo 	rcvdPkFromHL:count 	15
attr interpolationmode  none
attr source  packetReceivedFromUpper
attr title  "packets received from higher layer, count"
scalar scenarioPRJP1.node[20].lo0.lo 	rcvdPkFromHL:sum(packetBytes) 	840
attr interpolationmode  none
attr source  packetReceivedFromUpper
attr title  "packets received from higher layer, sum(packetBytes)"
scalar scenarioPRJP1.node[20].lo0.lo 	passedUpPk:count 	15
attr interpolationmode  none
attr source  packetSentToUpper
attr title  "packets passed to higher layer, count"
scalar scenarioPRJP1.node[20].lo0.lo 	passedUpPk:sum(packetBytes) 	840
attr interpolationmode  none
attr source  packetSentToUpper
attr title  "packets passed to higher layer, sum(packetBytes)"
scalar scenarioPRJP1.node[41].app 	"Total sent" 	2599
scalar scenarioPRJP1.node[41].app 	"Total received" 	185
scalar scenarioPRJP1.node[41].app 	"Total deleted" 	0
scalar scenarioPRJP1.node[41].app 	dropPk:count 	0
attr interpolationmode  none
attr source  dropPk
attr title  "packets dropped, count"
scalar scenarioPRJP1.node[41].app 	dropPk:sum(packetBytes) 	0
attr interpolationmode  none
attr source  dropPk
attr title  "packets dropped, sum(packetBytes)"
scalar scenarioPRJP1.node[41].app 	outOfOrderPk:count 	0
attr interpolationmode  none
attr source  outOfOrderPk
attr title  "packets received out of order, count"
scalar scenarioPRJP1.node[41].app 	outOfOrderPk:sum(packetBytes) 	0
attr interpolationmode  none
attr source  outOfOrderPk
attr title  "packets received out of order, sum(packetBytes)"
scalar scenarioPRJP1.node[41].app 	rcvdPk:count 	185
attr interpolationmode  none
attr source  rcvdPk
attr title  "packets received, count"
scalar scenarioPRJP1.node[41].app 	rcvdPk:sum(packetBytes) 	94720
attr interpolationmode  none
attr source  rcvdPk
attr title  "packets received, sum(packetBytes)"
statistic scenarioPRJP1.node[41].app 	endToEndDelay:histogram
field count 185
field mean 0.11001490579732
field stddev 0.35636402080969
field sum 20.352757572505
field sqrsum 25.606244727342
field min 0.000945011237
field max 2.011140774197
attr interpolationmode  none
attr source  messageAge(rcvdPk)
attr title  "delay, histogram"
attr unit  s
bin	-INF	0
bin	-1.0009477631785	0
bin	-0.8673620599231	0
bin	-0.7337763566677	0
bin	-0.6001906534123	0
bin	-0.4666049501569	0
bin	-0.3330192469015	0
bin	-0.1994335436461	0
bin	-0.0658478403907	167
bin	0.0677378628647	0
bin	0.2013235661201	2
bin	0.3349092693755	1
bin	0.4684949726309	2
bin	0.6020806758863	0
bin	0.7356663791417	0
bin	0.8692520823971	2
bin	1.0028377856525	5
bin	1.1364234889079	1
bin	1.2700091921633	1
bin	1.4035948954187	1
bin	1.5371805986741	0
bin	1.6707663019295	0
bin	1.8043520051849	0
bin	1.9379377084403	3
bin	2.0715234116957	0
bin	2.2051091149511	0
bin	2.3386948182065	0
bin	2.4722805214619	0
bin	2.6058662247173	0
bin	2.7394519279727	0
bin	2.8730376312281	0
bin	3.0066233344835	0
scalar scenarioPRJP1.node[41].app 	sentPk:count 	2599
attr interpolationmode  none
attr source  sentPk
attr title  "packets sent, count"
scalar scenarioPRJP1.node[41].app 	sentPk:sum(packetBytes) 	1330688
attr interpolationmode  none
attr source  sentPk
attr title  "packets sent, sum(packetBytes)"
scalar scenarioPRJP1.node[41].udp 	droppedPkBadChecksum:count 	0
attr interpolationmode  none
attr title  "packets dropped (checksum error), count"
scalar scenarioPRJP1.node[41].udp 	droppedPkWrongPort:count 	0
attr interpolationmode  none
attr title  "packets dropped (wrong port), count"
scalar scenarioPRJP1.node[41].udp 	passedUpPk:count 	185
attr interpolationmode  none
attr title  "packets passed up, count"
scalar scenarioPRJP1.node[41].udp 	rcvdPk:count 	185
attr interpolationmode  none
attr source  rcvdPk
attr title  "packets received, count"
scalar scenarioPRJP1.node[41].udp 	rcvdPk:sum(packetBytes) 	96200
attr interpolationmode  none
attr source  rcvdPk
attr title  "packets received, sum(packetBytes)"
scalar scenarioPRJP1.node[41].udp 	sentPk:count 	2599
attr interpolationmode  none
attr source  sentPk
attr title  "packets sent, count"
scalar scenarioPRJP1.node[41].udp 	sentPk:sum(packetBytes) 	1351480
attr interpolationmode  none
attr source  sentPk
attr title  "packets sent, sum(packetBytes)"
scalar scenarioPRJP1.node[41].networkLayer.arp 	failedARPResolution:count 	7
attr title  "ARP failed resolutions, count"
scalar scenarioPRJP1.node[41].networkLayer.arp 	completedARPResolution:count 	383
attr title  "ARP completed resolutions, count"
scalar scenarioPRJP1.node[41].networkLayer.arp 	initiatedARPResolution:count 	54
attr title  "ARP initiated resolutions, count"
scalar scenarioPRJP1.node[41].networkLayer.arp 	sentReply:count 	55
attr title  "ARP replies sent, count"
scalar scenarioPRJP1.node[41].networkLayer.arp 	sentReq:count 	77
attr title  "ARP request sent, count"
scalar scenarioPRJP1.node[41].mobility 	startTime 	4.9
scalar scenarioPRJP1.node[41].mobility 	totalTime 	945.1
scalar scenarioPRJP1.node[41].mobility 	stopTime 	950
scalar scenarioPRJP1.node[41].mobility 	minSpeed 	2.4754357405071e-13
scalar scenarioPRJP1.node[41].mobility 	maxSpeed 	17.965320396115
scalar scenarioPRJP1.node[41].mobility 	totalDistance 	8990.1864474902
scalar scenarioPRJP1.node[41].mobility 	totalCO2Emission 	2508.4145794576
scalar scenarioPRJP1.node[41].wlan.mgmt 	dataQueueLen:max 	0
attr interpolationmode  sample-hold
attr title  "data queue length, max"
scalar scenarioPRJP1.node[41].wlan.mgmt 	dataQueueLen:timeavg 	0
attr interpolationmode  sample-hold
attr title  "data queue length, timeavg"
scalar scenarioPRJP1.node[41].wlan.mgmt 	dropPkByQueue:count 	0
attr interpolationmode  none
attr source  dropPkByQueue
attr title  "packets dropped by queue, count"
scalar scenarioPRJP1.node[41].wlan.mgmt 	dropPkByQueue:sum(packetBytes) 	0
attr interpolationmode  none
attr source  dropPkByQueue
attr title  "packets dropped by queue, sum(packetBytes)"
scalar scenarioPRJP1.node[41].wlan.mac 	"number of received packets" 	1252
scalar scenarioPRJP1.node[41].wlan.mac 	"number of collisions" 	3969
scalar scenarioPRJP1.node[41].wlan.mac 	"number of internal collisions" 	0
scalar scenarioPRJP1.node[41].wlan.mac 	"number of retry for AC 0" 	2038
scalar scenarioPRJP1.node[41].wlan.mac 	"number of retry for AC 1" 	24
scalar scenarioPRJP1.node[41].wlan.mac 	"number of retry for AC 2" 	0
scalar scenarioPRJP1.node[41].wlan.mac 	"number of retry for AC 3" 	0
scalar scenarioPRJP1.node[41].wlan.mac 	"sent and received bits" 	23663136
scalar scenarioPRJP1.node[41].wlan.mac 	"sent packet within AC 0" 	568
scalar scenarioPRJP1.node[41].wlan.mac 	"sent packet within AC 1" 	33
scalar scenarioPRJP1.node[41].wlan.mac 	"sent packet within AC 2" 	0
scalar scenarioPRJP1.node[41].wlan.mac 	"sent packet within AC 3" 	0
scalar scenarioPRJP1.node[41].wlan.mac 	"sent in TXOP " 	0
scalar scenarioPRJP1.node[41].wlan.mac 	"sentWithoutRetry AC 0" 	542
scalar scenarioPRJP1.node[41].wlan.mac 	"sentWithoutRetry AC 1" 	33
scalar scenarioPRJP1.node[41].wlan.mac 	"sentWithoutRetry AC 2" 	0
scalar scenarioPRJP1.node[41].wlan.mac 	"sentWithoutRetry AC 3" 	0
scalar scenarioPRJP1.node[41].wlan.mac 	"numGivenUp AC 0" 	328
scalar scenarioPRJP1.node[41].wlan.mac 	"numGivenUp AC 1" 	4
scalar scenarioPRJP1.node[41].wlan.mac 	"numGivenUp AC 2" 	0
scalar scenarioPRJP1.node[41].wlan.mac 	"numGivenUp AC 3" 	0
scalar scenarioPRJP1.node[41].wlan.mac 	"numDropped AC 0" 	0
scalar scenarioPRJP1.node[41].wlan.mac 	"numDropped AC 1" 	0
scalar scenarioPRJP1.node[41].wlan.mac 	"numDropped AC 2" 	0
scalar scenarioPRJP1.node[41].wlan.mac 	"numDropped AC 3" 	0
scalar scenarioPRJP1.node[41].wlan.mac 	rcvdPkFromLL:count 	36277
attr interpolationmode  none
attr source  packetReceivedFromLower
attr title  "packets received from lower layer, count"
scalar scenarioPRJP1.node[41].wlan.mac 	rcvdPkFromLL:sum(packetBytes) 	21580492
attr interpolationmode  none
attr source  packetReceivedFromLower
attr title  "packets received from lower layer, sum(packetBytes)"
scalar scenarioPRJP1.node[41].wlan.mac 	sentDownPk:count 	6817
attr interpolationmode  none
attr source  packetSentToLower
attr title  "packets sent to lower layer, count"
scalar scenarioPRJP1.node[41].wlan.mac 	sentDownPk:sum(packetBytes) 	4232780
attr interpolationmode  none
attr source  packetSentToLower
attr title  "packets sent to lower layer, sum(packetBytes)"
scalar scenarioPRJP1.node[41].wlan.mac 	rcvdPkFromHL:count 	3503
attr interpolationmode  none
attr source  packetReceivedFromUpper
attr title  "packets received from higher layer, count"
scalar scenarioPRJP1.node[41].wlan.mac 	rcvdPkFromHL:sum(packetBytes) 	3132340
attr interpolationmode  none
attr source  packetReceivedFromUpper
attr title  "packets received from higher layer, sum(packetBytes)"
scalar scenarioPRJP1.node[41].wlan.mac 	passedUpPk:count 	13105
attr interpolationmode  none
attr source  packetSentToUpper
attr title  "packets passed to higher layer, count"
scalar scenarioPRJP1.node[41].wlan.mac 	passedUpPk:sum(packetBytes) 	13052008
attr interpolationmode  none
attr source  packetSentToUpper
attr title  "packets passed to higher layer, sum(packetBytes)"
statistic scenarioPRJP1.node[41].wlan.radio 	radioChannel:histogram
field count 1
field mean 3
field stddev nan
field sum 3
field sqrsum 9
field min 3
field max 3
attr interpolationmode  sample-hold
attr source  radioChannelChanged
attr title  "Radio channel, histogram"
bin	-INF	0
bin	2	0
bin	3	1
bin	4	0
scalar scenarioPRJP1.node[41].wlan.radio 	transmissionState:count 	27268
attr interpolationmode  sample-hold
attr source  transmissionStateChanged
attr title  "Radio transmission state, count"
scalar scenarioPRJP1.node[41].wlan.radio 	receptionState:count 	86512
attr interpolationmode  sample-hold
attr source  receptionStateChanged
attr title  "Radio reception state, count"
scalar scenarioPRJP1.node[41].wlan.radio 	radioMode:count 	13636
attr interpolationmode  sample-hold
attr source  radioModeChanged
attr title  "Radio mode, count"
statistic scenarioPRJP1.node[41].wlan.radio 	symbolErrorRate:histogram
field count 0
field mean nan
field stddev nan
field sum 0
field sqrsum 0
field min nan
field max nan
attr source  symbolErrorRate
attr title  "Symbol error rate, histogram"
bin	-INF	0
bin	-0.5	0
bin	-0.46666666666667	0
bin	-0.43333333333333	0
bin	-0.4	0
bin	-0.36666666666667	0
bin	-0.33333333333333	0
bin	-0.3	0
bin	-0.26666666666667	0
bin	-0.23333333333333	0
bin	-0.2	0
bin	-0.16666666666667	0
bin	-0.13333333333333	0
bin	-0.1	0
bin	-0.066666666666667	0
bin	-0.033333333333333	0
bin	0	0
bin	0.033333333333333	0
bin	0.066666666666667	0
bin	0.1	0
bin	0.13333333333333	0
bin	0.16666666666667	0
bin	0.2	0
bin	0.23333333333333	0
bin	0.26666666666667	0
bin	0.3	0
bin	0.33333333333333	0
bin	0.36666666666667	0
bin	0.4	0
bin	0.43333333333333	0
bin	0.46666666666667	0
bin	0.5	0
statistic scenarioPRJP1.node[41].wlan.radio 	bitErrorRate:histogram
field count 0
field mean nan
field stddev nan
field sum 0
field sqrsum 0
field min nan
field max nan
attr source  bitErrorRate
attr title  "Bit error rate, histogram"
bin	-INF	0
bin	-0.5	0
bin	-0.46666666666667	0
bin	-0.43333333333333	0
bin	-0.4	0
bin	-0.36666666666667	0
bin	-0.33333333333333	0
bin	-0.3	0
bin	-0.26666666666667	0
bin	-0.23333333333333	0
bin	-0.2	0
bin	-0.16666666666667	0
bin	-0.13333333333333	0
bin	-0.1	0
bin	-0.066666666666667	0
bin	-0.033333333333333	0
bin	0	0
bin	0.033333333333333	0
bin	0.066666666666667	0
bin	0.1	0
bin	0.13333333333333	0
bin	0.16666666666667	0
bin	0.2	0
bin	0.23333333333333	0
bin	0.26666666666667	0
bin	0.3	0
bin	0.33333333333333	0
bin	0.36666666666667	0
bin	0.4	0
bin	0.43333333333333	0
bin	0.46666666666667	0
bin	0.5	0
statistic scenarioPRJP1.node[41].wlan.radio 	packetErrorRate:histogram
field count 36277
field mean 0.10245053913089
field stddev 0.29520573273035
field sum 3716.5982080515
field sqrsum 3542.0911902747
field min 0
field max 1
attr source  packetErrorRate
attr title  "Packet error rate, histogram"
bin	-INF	0
bin	-0.5	0
bin	-0.43333333333333	0
bin	-0.36666666666667	0
bin	-0.3	0
bin	-0.23333333333333	0
bin	-0.16666666666667	0
bin	-0.1	0
bin	-0.033333333333333	31834
bin	0.033333333333333	312
bin	0.1	137
bin	0.16666666666667	98
bin	0.23333333333333	73
bin	0.3	51
bin	0.36666666666667	60
bin	0.43333333333333	45
bin	0.5	51
bin	0.56666666666667	47
bin	0.63333333333333	46
bin	0.7	51
bin	0.76666666666667	53
bin	0.83333333333333	65
bin	0.9	77
bin	0.96666666666667	3277
bin	1.0333333333333	0
bin	1.1	0
bin	1.1666666666667	0
bin	1.2333333333333	0
bin	1.3	0
bin	1.3666666666667	0
bin	1.4333333333333	0
bin	1.5	0
statistic scenarioPRJP1.node[41].wlan.radio 	minSNIR:histogram
field count 36277
field mean 8683.0053875253
field stddev 51071.157169366
field sum 314993386.44326
field sqrsum 97352441291888
field min 0.00030822898568737
field max 753239.71923443
attr source  minSNIR
attr title  "Min SNIR, histogram"
bin	-INF	0
bin	-17105.430464608	0
bin	-14824.497750798	0
bin	-12543.565036987	0
bin	-10262.632323177	0
bin	-7981.6996093665	0
bin	-5700.766895556	0
bin	-3419.8341817455	0
bin	-1138.9014679351	28851
bin	1142.0312458754	2466
bin	3422.9639596859	877
bin	5703.8966734963	578
bin	7984.8293873068	287
bin	10265.762101117	384
bin	12546.694814928	211
bin	14827.627528738	149
bin	17108.560242549	184
bin	19389.492956359	128
bin	21670.42567017	211
bin	23951.35838398	92
bin	26232.29109779	69
bin	28513.223811601	57
bin	30794.156525411	98
bin	33075.089239222	37
bin	35356.021953032	34
bin	37636.954666843	99
bin	39917.887380653	20
bin	42198.820094464	21
bin	44479.752808274	25
bin	46760.685522085	53
bin	49041.618235895	18
bin	51322.550949706	1328
scalar scenarioPRJP1.node[41].lo0.lo 	droppedPkBitError:count 	0
attr interpolationmode  none
attr source  dropPkBitError
attr title  "packets dropped/bit error, count"
scalar scenarioPRJP1.node[41].lo0.lo 	droppedPkBitError:sum(packetBytes) 	0
attr interpolationmode  none
attr source  dropPkBitError
attr title  "packets dropped/bit error, sum(packetBytes)"
scalar scenarioPRJP1.node[41].lo0.lo 	rcvdPkFromHL:count 	9
attr interpolationmode  none
attr source  packetReceivedFromUpper
attr title  "packets received from higher layer, count"
scalar scenarioPRJP1.node[41].lo0.lo 	rcvdPkFromHL:sum(packetBytes) 	504
attr interpolationmode  none
attr source  packetReceivedFromUpper
attr title  "packets received from higher layer, sum(packetBytes)"
scalar scenarioPRJP1.node[41].lo0.lo 	passedUpPk:count 	9
attr interpolationmode  none
attr source  packetSentToUpper
attr title  "packets passed to higher layer, count"
scalar scenarioPRJP1.node[41].lo0.lo 	passedUpPk:sum(packetBytes) 	504
attr interpolationmode  none
attr source  packetSentToUpper
attr title  "packets passed to higher layer, sum(packetBytes)"
scalar scenarioPRJP1.node[60].app 	"Total sent" 	2611
scalar scenarioPRJP1.node[60].app 	"Total received" 	157
scalar scenarioPRJP1.node[60].app 	"Total deleted" 	0
scalar scenarioPRJP1.node[60].app 	dropPk:count 	0
attr interpolationmode  none
attr source  dropPk
attr title  "packets dropped, count"
scalar scenarioPRJP1.node[60].app 	dropPk:sum(packetBytes) 	0
attr interpolationmode  none
attr source  dropPk
attr title  "packets dropped, sum(packetBytes)"
scalar scenarioPRJP1.node[60].app 	outOfOrderPk:count 	6
attr interpolationmode  none
attr source  outOfOrderPk
attr title  "packets received out of order, count"
scalar scenarioPRJP1.node[60].app 	outOfOrderPk:sum(packetBytes) 	3072
attr interpolationmode  none
attr source  outOfOrderPk
attr title  "packets received out of order, sum(packetBytes)"
scalar scenarioPRJP1.node[60].app 	rcvdPk:count 	157
attr interpolationmode  none
attr source  rcvdPk
attr title  "packets received, count"
scalar scenarioPRJP1.node[60].app 	rcvdPk:sum(packetBytes) 	80384
attr interpolationmode  none
attr source  rcvdPk
attr title  "packets received, sum(packetBytes)"
statistic scenarioPRJP1.node[60].app 	endToEndDelay:histogram
field count 157
field mean 0.078224042612809
field stddev 0.28595941800881
field sum 12.281174690211
field sqrsum 13.71723817698
field min 0.000945018025
field max 2.036823182348
attr interpolationmode  none
attr source  messageAge(rcvdPk)
attr title  "delay, histogram"
attr unit  s
bin	-INF	0
bin	-1.0169940198595	0
bin	-0.8812688108725	0
bin	-0.7455436018855	0
bin	-0.6098183928985	0
bin	-0.4740931839115	0
bin	-0.3383679749245	0
bin	-0.2026427659375	0
bin	-0.0669175569505	145
bin	0.0688076520365	2
bin	0.2045328610235	0
bin	0.3402580700105	0
bin	0.4759832789975	0
bin	0.6117084879845	1
bin	0.7474336969715	0
bin	0.8831589059585	5
bin	1.0188841149455	2
bin	1.1546093239325	1
bin	1.2903345329195	0
bin	1.4260597419065	0
bin	1.5617849508935	0
bin	1.6975101598805	0
bin	1.8332353688675	0
bin	1.9689605778545	1
bin	2.1046857868415	0
bin	2.2404109958285	0
bin	2.3761362048155	0
bin	2.5118614138025	0
bin	2.6475866227895	0
bin	2.7833118317765	0
bin	2.9190370407635	0
bin	3.0547622497505	0
scalar scenarioPRJP1.node[60].app 	sentPk:count 	2611
attr interpolationmode  none
attr source  sentPk
attr title  "packets sent, count"
scalar scenarioPRJP1.node[60].app 	sentPk:sum(packetBytes) 	1336832
attr interpolationmode  none
attr source  sentPk
attr title  "packets sent, sum(packetBytes)"
scalar scenarioPRJP1.node[60].udp 	droppedPkBadChecksum:count 	0
attr interpolationmode  none
attr title  "packets dropped (checksum error), count"
scalar scenarioPRJP1.node[60].udp 	droppedPkWrongPort:count 	0
attr interpolationmode  none
attr title  "packets dropped (wrong port), count"
scalar scenarioPRJP1.node[60].udp 	passedUpPk:count 	163
attr interpolationmode  none
attr title  "packets passed up, count"
scalar scenarioPRJP1.node[60].udp 	rcvdPk:count 	163
attr interpolationmode  none
attr source  rcvdPk
attr title  "packets received, count"
scalar scenarioPRJP1.node[60].udp 	rcvdPk:sum(packetBytes) 	84760
attr interpolationmode  none
attr source  rcvdPk
attr title  "packets received, sum(packetBytes)"
scalar scenarioPRJP1.node[60].udp 	sentPk:count 	2611
attr interpolationmode  none
attr source  sentPk
attr title  "packets sent, count"
scalar scenarioPRJP1.node[60].udp 	sentPk:sum(packetBytes) 	1357720
attr interpolationmode  none
attr source  sentPk
attr title  "packets sent, sum(packetBytes)"
scalar scenarioPRJP1.node[60].networkLayer.arp 	failedARPResolution:count 	11
attr title  "ARP failed resolutions, count"
scalar scenarioPRJP1.node[60].networkLayer.arp 	completedARPResolution:count 	367
attr title  "ARP completed resolutions, count"
scalar scenarioPRJP1.node[60].networkLayer.arp 	initiatedARPResolution:count 	64
attr title  "ARP initiated resolutions, count"
scalar scenarioPRJP1.node[60].networkLayer.arp 	sentReply:count 	44
attr title  "ARP replies sent, count"
scalar scenarioPRJP1.node[60].networkLayer.arp 	sentReq:count 	98
attr title  "ARP request sent, count"
scalar scenarioPRJP1.node[60].mobility 	startTime 	7.3
scalar scenarioPRJP1.node[60].mobility 	totalTime 	942.7
scalar scenarioPRJP1.node[60].mobility 	stopTime 	950
scalar scenarioPRJP1.node[60].mobility 	minSpeed 	2.4756255384125e-13
scalar scenarioPRJP1.node[60].mobility 	maxSpeed 	19.244456905491
scalar scenarioPRJP1.node[60].mobility 	totalDistance 	9673.6234090964
scalar scenarioPRJP1.node[60].mobility 	totalCO2Emission 	2595.2631451787
scalar scenarioPRJP1.node[60].wlan.mgmt 	dataQueueLen:max 	0
attr interpolationmode  sample-hold
attr title  "data queue length, max"
scalar scenarioPRJP1.node[60].wlan.mgmt 	dataQueueLen:timeavg 	0
attr interpolationmode  sample-hold
attr title  "data queue length, timeavg"
scalar scenarioPRJP1.node[60].wlan.mgmt 	dropPkByQueue:count 	0
attr interpolationmode  none
attr source  dropPkByQueue
attr title  "packets dropped by queue, count"
scalar scenarioPRJP1.node[60].wlan.mgmt 	dropPkByQueue:sum(packetBytes) 	0
attr interpolationmode  none
attr source  dropPkByQueue
attr title  "packets dropped by queue, sum(packetBytes)"
scalar scenarioPRJP1.node[60].wlan.mac 	"number of received packets" 	1593
scalar scenarioPRJP1.node[60].wlan.mac 	"number of collisions" 	3725
scalar scenarioPRJP1.node[60].wlan.mac 	"number of internal collisions" 	1
scalar scenarioPRJP1.node[60].wlan.mac 	"number of retry for AC 0" 	2473
scalar scenarioPRJP1.node[60].wlan.mac 	"number of retry for AC 1" 	126
scalar scenarioPRJP1.node[60].wlan.mac 	"number of retry for AC 2" 	0
scalar scenarioPRJP1.node[60].wlan.mac 	"number of retry for AC 3" 	0
scalar scenarioPRJP1.node[60].wlan.mac 	"sent and received bits" 	21829440
scalar scenarioPRJP1.node[60].wlan.mac 	"sent packet within AC 0" 	469
scalar scenarioPRJP1.node[60].wlan.mac 	"sent packet within AC 1" 	20
scalar scenarioPRJP1.node[60].wlan.mac 	"sent packet within AC 2" 	0
scalar scenarioPRJP1.node[60].wlan.mac 	"sent packet within AC 3" 	0
scalar scenarioPRJP1.node[60].wlan.mac 	"sent in TXOP " 	0
scalar scenarioPRJP1.node[60].wlan.mac 	"sentWithoutRetry AC 0" 	436
scalar scenarioPRJP1.node[60].wlan.mac 	"sentWithoutRetry AC 1" 	20
scalar scenarioPRJP1.node[60].wlan.mac 	"sentWithoutRetry AC 2" 	0
scalar scenarioPRJP1.node[60].wlan.mac 	"sentWithoutRetry AC 3" 	0
scalar scenarioPRJP1.node[60].wlan.mac 	"numGivenUp AC 0" 	401
scalar scenarioPRJP1.node[60].wlan.mac 	"numGivenUp AC 1" 	21
scalar scenarioPRJP1.node[60].wlan.mac 	"numGivenUp AC 2" 	0
scalar scenarioPRJP1.node[60].wlan.mac 	"numGivenUp AC 3" 	0
scalar scenarioPRJP1.node[60].wlan.mac 	"numDropped AC 0" 	0
scalar scenarioPRJP1.node[60].wlan.mac 	"numDropped AC 1" 	0
scalar scenarioPRJP1.node[60].wlan.mac 	"numDropped AC 2" 	0
scalar scenarioPRJP1.node[60].wlan.mac 	"numDropped AC 3" 	0
scalar scenarioPRJP1.node[60].wlan.mac 	rcvdPkFromLL:count 	35286
attr interpolationmode  none
attr source  packetReceivedFromLower
attr title  "packets received from lower layer, count"
scalar scenarioPRJP1.node[60].wlan.mac 	rcvdPkFromLL:sum(packetBytes) 	20342036
attr interpolationmode  none
attr source  packetReceivedFromLower
attr title  "packets received from lower layer, sum(packetBytes)"
scalar scenarioPRJP1.node[60].wlan.mac 	sentDownPk:count 	7528
attr interpolationmode  none
attr source  packetSentToLower
attr title  "packets sent to lower layer, count"
scalar scenarioPRJP1.node[60].wlan.mac 	sentDownPk:sum(packetBytes) 	4326170
attr interpolationmode  none
attr source  packetSentToLower
attr title  "packets sent to lower layer, sum(packetBytes)"
scalar scenarioPRJP1.node[60].wlan.mac 	rcvdPkFromHL:count 	3337
attr interpolationmode  none
attr source  packetReceivedFromUpper
attr title  "packets received from higher layer, count"
scalar scenarioPRJP1.node[60].wlan.mac 	rcvdPkFromHL:sum(packetBytes) 	2948276
attr interpolationmode  none
attr source  packetReceivedFromUpper
attr title  "packets received from higher layer, sum(packetBytes)"
scalar scenarioPRJP1.node[60].wlan.mac 	passedUpPk:count 	12072
attr interpolationmode  none
attr source  packetSentToUpper
attr title  "packets passed to higher layer, count"
scalar scenarioPRJP1.node[60].wlan.mac 	passedUpPk:sum(packetBytes) 	11974288
attr interpolationmode  none
attr source  packetSentToUpper
attr title  "packets passed to higher layer, sum(packetBytes)"
statistic scenarioPRJP1.node[60].wlan.radio 	radioChannel:histogram
field count 1
field mean 3
field stddev nan
field sum 3
field sqrsum 9
field min 3
field max 3
attr interpolationmode  sample-hold
attr source  radioChannelChanged
attr title  "Radio channel, histogram"
bin	-INF	0
bin	2	0
bin	3	1
bin	4	0
scalar scenarioPRJP1.node[60].wlan.radio 	transmissionState:count 	30112
attr interpolationmode  sample-hold
attr source  transmissionStateChanged
attr title  "Radio transmission state, count"
scalar scenarioPRJP1.node[60].wlan.radio 	receptionState:count 	86117
attr interpolationmode  sample-hold
attr source  receptionStateChanged
attr title  "Radio reception state, count"
scalar scenarioPRJP1.node[60].wlan.radio 	radioMode:count 	15058
attr interpolationmode  sample-hold
attr source  radioModeChanged
attr title  "Radio mode, count"
statistic scenarioPRJP1.node[60].wlan.radio 	symbolErrorRate:histogram
field count 0
field mean nan
field stddev nan
field sum 0
field sqrsum 0
field min nan
field max nan
attr source  symbolErrorRate
attr title  "Symbol error rate, histogram"
bin	-INF	0
bin	-0.5	0
bin	-0.46666666666667	0
bin	-0.43333333333333	0
bin	-0.4	0
bin	-0.36666666666667	0
bin	-0.33333333333333	0
bin	-0.3	0
bin	-0.26666666666667	0
bin	-0.23333333333333	0
bin	-0.2	0
bin	-0.16666666666667	0
bin	-0.13333333333333	0
bin	-0.1	0
bin	-0.066666666666667	0
bin	-0.033333333333333	0
bin	0	0
bin	0.033333333333333	0
bin	0.066666666666667	0
bin	0.1	0
bin	0.13333333333333	0
bin	0.16666666666667	0
bin	0.2	0
bin	0.23333333333333	0
bin	0.26666666666667	0
bin	0.3	0
bin	0.33333333333333	0
bin	0.36666666666667	0
bin	0.4	0
bin	0.43333333333333	0
bin	0.46666666666667	0
bin	0.5	0
statistic scenarioPRJP1.node[60].wlan.radio 	bitErrorRate:histogram
field count 0
field mean nan
field stddev nan
field sum 0
field sqrsum 0
field min nan
field max nan
attr source  bitErrorRate
attr title  "Bit error rate, histogram"
bin	-INF	0
bin	-0.5	0
bin	-0.46666666666667	0
bin	-0.43333333333333	0
bin	-0.4	0
bin	-0.36666666666667	0
bin	-0.33333333333333	0
bin	-0.3	0
bin	-0.26666666666667	0
bin	-0.23333333333333	0
bin	-0.2	0
bin	-0.16666666666667	0
bin	-0.13333333333333	0
bin	-0.1	0
bin	-0.066666666666667	0
bin	-0.033333333333333	0
bin	0	0
bin	0.033333333333333	0
bin	0.066666666666667	0
bin	0.1	0
bin	0.13333333333333	0
bin	0.16666666666667	0
bin	0.2	0
bin	0.23333333333333	0
bin	0.26666666666667	0
bin	0.3	0
bin	0.33333333333333	0
bin	0.36666666666667	0
bin	0.4	0
bin	0.43333333333333	0
bin	0.46666666666667	0
bin	0.5	0
statistic scenarioPRJP1.node[60].wlan.radio 	packetErrorRate:histogram
field count 35286
field mean 0.099667079147856
field stddev 0.29235691163209
field sum 3516.8525548113
field sqrsum 3366.4138348756
field min 0
field max 1
attr source  packetErrorRate
attr title  "Packet error rate, histogram"
bin	-INF	0
bin	-0.072986926828476	0
bin	-0.063255336584679	0
bin	-0.053523746340882	0
bin	-0.043792156097085	0
bin	-0.034060565853289	0
bin	-0.024328975609492	0
bin	-0.014597385365695	0
bin	-0.0048657951218984	30694
bin	0.0048657951218984	268
bin	0.014597385365695	94
bin	0.024328975609492	99
bin	0.034060565853289	47
bin	0.043792156097085	53
bin	0.053523746340882	42
bin	0.063255336584679	36
bin	0.072986926828476	25
bin	0.082718517072272	19
bin	0.092450107316069	30
bin	0.10218169755987	16
bin	0.11191328780366	20
bin	0.12164487804746	14
bin	0.13137646829126	20
bin	0.14110805853505	17
bin	0.15083964877885	22
bin	0.16057123902265	16
bin	0.17030282926644	14
bin	0.18003441951024	17
bin	0.18976600975404	13
bin	0.19949759999783	9
bin	0.20922919024163	11
bin	0.21896078048543	3690
statistic scenarioPRJP1.node[60].wlan.radio 	minSNIR:histogram
field count 35286
field mean 6695.0459875696
field stddev 48562.043325295
field sum 236241392.71738
field sqrsum 84793276340685
field min 0.001407551743525
field max 753239.71923443
attr source  minSNIR
attr title  "Min SNIR, histogram"
bin	-INF	0
bin	-19298.521547546	0
bin	-16725.069091115	0
bin	-14151.616634685	0
bin	-11578.164178255	0
bin	-9004.7117218242	0
bin	-6431.2592653938	0
bin	-3857.8068089634	0
bin	-1284.354352533	29437
bin	1289.0981038974	2052
bin	3862.5505603279	622
bin	6436.0030167583	409
bin	9009.4554731887	367
bin	11582.907929619	442
bin	14156.36038605	204
bin	16729.81284248	199
bin	19303.26529891	92
bin	21876.717755341	291
bin	24450.170211771	74
bin	27023.622668202	44
bin	29597.075124632	41
bin	32170.527581062	112
bin	34743.980037493	41
bin	37317.432493923	59
bin	39890.884950354	28
bin	42464.337406784	5
bin	45037.789863214	10
bin	47611.242319645	20
bin	50184.694776075	15
bin	52758.147232506	20
bin	55331.599688936	17
bin	57905.052145367	685
scalar scenarioPRJP1.node[60].lo0.lo 	droppedPkBitError:count 	0
attr interpolationmode  none
attr source  dropPkBitError
attr title  "packets dropped/bit error, count"
scalar scenarioPRJP1.node[60].lo0.lo 	droppedPkBitError:sum(packetBytes) 	0
attr interpolationmode  none
attr source  dropPkBitError
attr title  "packets dropped/bit error, sum(packetBytes)"
scalar scenarioPRJP1.node[60].lo0.lo 	rcvdPkFromHL:count 	5
attr interpolationmode  none
attr source  packetReceivedFromUpper
attr title  "packets received from higher layer, count"
scalar scenarioPRJP1.node[60].lo0.lo 	rcvdPkFromHL:sum(packetBytes) 	280
attr interpolationmode  none
attr source  packetReceivedFromUpper
attr title  "packets received from higher layer, sum(packetBytes)"
scalar scenarioPRJP1.node[60].lo0.lo 	passedUpPk:count 	5
attr interpolationmode  none
attr source  packetSentToUpper
attr title  "packets passed to higher layer, count"
scalar scenarioPRJP1.node[60].lo0.lo 	passedUpPk:sum(packetBytes) 	280
attr interpolationmode  none
attr source  packetSentToUpper
attr title  "packets passed to higher layer, sum(packetBytes)"
scalar scenarioPRJP1.node[1].app 	"Total sent" 	2626
scalar scenarioPRJP1.node[1].app 	"Total received" 	228
scalar scenarioPRJP1.node[1].app 	"Total deleted" 	0
scalar scenarioPRJP1.node[1].app 	dropPk:count 	0
attr interpolationmode  none
attr source  dropPk
attr title  "packets dropped, count"
scalar scenarioPRJP1.node[1].app 	dropPk:sum(packetBytes) 	0
attr interpolationmode  none
attr source  dropPk
attr title  "packets dropped, sum(packetBytes)"
scalar scenarioPRJP1.node[1].app 	outOfOrderPk:count 	0
attr interpolationmode  none
attr source  outOfOrderPk
attr title  "packets received out of order, count"
scalar scenarioPRJP1.node[1].app 	outOfOrderPk:sum(packetBytes) 	0
attr interpolationmode  none
attr source  outOfOrderPk
attr title  "packets received out of order, sum(packetBytes)"
scalar scenarioPRJP1.node[1].app 	rcvdPk:count 	228
attr interpolationmode  none
attr source  rcvdPk
attr title  "packets received, count"
scalar scenarioPRJP1.node[1].app 	rcvdPk:sum(packetBytes) 	116736
attr interpolationmode  none
attr source  rcvdPk
attr title  "packets received, sum(packetBytes)"
statistic scenarioPRJP1.node[1].app 	endToEndDelay:histogram
field count 228
field mean 0.049384825551136
field stddev 0.21244467703383
field sum 11.259740225659
field sqrsum 10.801192468397
field min 0.000945011007
field max 2.006703575081
attr interpolationmode  none
attr source  messageAge(rcvdPk)
attr title  "delay, histogram"
attr unit  s
bin	-INF	0
bin	-1.001934259525	0
bin	-0.8682170224314	0
bin	-0.7344997853378	0
bin	-0.6007825482442	0
bin	-0.4670653111506	0
bin	-0.333348074057	0
bin	-0.1996308369634	0
bin	-0.0659135998698	215
bin	0.0678036372238	1
bin	0.2015208743174	3
bin	0.335238111411	0
bin	0.4689553485046	1
bin	0.6026725855982	1
bin	0.7363898226918	1
bin	0.8701070597854	2
bin	1.003824296879	3
bin	1.1375415339726	0
bin	1.2712587710662	0
bin	1.4049760081598	0
bin	1.5386932452534	0
bin	1.672410482347	0
bin	1.8061277194406	0
bin	1.9398449565342	1
bin	2.0735621936278	0
bin	2.2072794307214	0
bin	2.340996667815	0
bin	2.4747139049086	0
bin	2.6084311420022	0
bin	2.7421483790958	0
bin	2.8758656161894	0
bin	3.009582853283	0
scalar scenarioPRJP1.node[1].app 	sentPk:count 	2626
attr interpolationmode  none
attr source  sentPk
attr title  "packets sent, count"
scalar scenarioPRJP1.node[1].app 	sentPk:sum(packetBytes) 	1344512
attr interpolationmode  none
attr source  sentPk
attr title  "packets sent, sum(packetBytes)"
scalar scenarioPRJP1.node[1].udp 	droppedPkBadChecksum:count 	0
attr interpolationmode  none
attr title  "packets dropped (checksum error), count"
scalar scenarioPRJP1.node[1].udp 	droppedPkWrongPort:count 	0
attr interpolationmode  none
attr title  "packets dropped (wrong port), count"
scalar scenarioPRJP1.node[1].udp 	passedUpPk:count 	228
attr interpolationmode  none
attr title  "packets passed up, count"
scalar scenarioPRJP1.node[1].udp 	rcvdPk:count 	228
attr interpolationmode  none
attr source  rcvdPk
attr title  "packets received, count"
scalar scenarioPRJP1.node[1].udp 	rcvdPk:sum(packetBytes) 	118560
attr interpolationmode  none
attr source  rcvdPk
attr title  "packets received, sum(packetBytes)"
scalar scenarioPRJP1.node[1].udp 	sentPk:count 	2626
attr interpolationmode  none
attr source  sentPk
attr title  "packets sent, count"
scalar scenarioPRJP1.node[1].udp 	sentPk:sum(packetBytes) 	1365520
attr interpolationmode  none
attr source  sentPk
attr title  "packets sent, sum(packetBytes)"
scalar scenarioPRJP1.node[1].networkLayer.arp 	failedARPResolution:count 	10
attr title  "ARP failed resolutions, count"
scalar scenarioPRJP1.node[1].networkLayer.arp 	completedARPResolution:count 	448
attr title  "ARP completed resolutions, count"
scalar scenarioPRJP1.node[1].networkLayer.arp 	initiatedARPResolution:count 	63
attr title  "ARP initiated resolutions, count"
scalar scenarioPRJP1.node[1].networkLayer.arp 	sentReply:count 	36
attr title  "ARP replies sent, count"
scalar scenarioPRJP1.node[1].networkLayer.arp 	sentReq:count 	96
attr title  "ARP request sent, count"
scalar scenarioPRJP1.node[1].mobility 	startTime 	0.1
scalar scenarioPRJP1.node[1].mobility 	totalTime 	949.9
scalar scenarioPRJP1.node[1].mobility 	stopTime 	950
scalar scenarioPRJP1.node[1].mobility 	minSpeed 	2.476129339858e-13
scalar scenarioPRJP1.node[1].mobility 	maxSpeed 	15.451216358249
scalar scenarioPRJP1.node[1].mobility 	totalDistance 	7984.6317041228
scalar scenarioPRJP1.node[1].mobility 	totalCO2Emission 	2219.6066404909
scalar scenarioPRJP1.node[1].wlan.mgmt 	dataQueueLen:max 	0
attr interpolationmode  sample-hold
attr title  "data queue length, max"
scalar scenarioPRJP1.node[1].wlan.mgmt 	dataQueueLen:timeavg 	0
attr interpolationmode  sample-hold
attr title  "data queue length, timeavg"
scalar scenarioPRJP1.node[1].wlan.mgmt 	dropPkByQueue:count 	0
attr interpolationmode  none
attr source  dropPkByQueue
attr title  "packets dropped by queue, count"
scalar scenarioPRJP1.node[1].wlan.mgmt 	dropPkByQueue:sum(packetBytes) 	0
attr interpolationmode  none
attr source  dropPkByQueue
attr title  "packets dropped by queue, sum(packetBytes)"
scalar scenarioPRJP1.node[1].wlan.mac 	"number of received packets" 	1549
scalar scenarioPRJP1.node[1].wlan.mac 	"number of collisions" 	4224
scalar scenarioPRJP1.node[1].wlan.mac 	"number of internal collisions" 	0
scalar scenarioPRJP1.node[1].wlan.mac 	"number of retry for AC 0" 	1704
scalar scenarioPRJP1.node[1].wlan.mac 	"number of retry for AC 1" 	0
scalar scenarioPRJP1.node[1].wlan.mac 	"number of retry for AC 2" 	0
scalar scenarioPRJP1.node[1].wlan.mac 	"number of retry for AC 3" 	0
scalar scenarioPRJP1.node[1].wlan.mac 	"sent and received bits" 	26555072
scalar scenarioPRJP1.node[1].wlan.mac 	"sent packet within AC 0" 	966
scalar scenarioPRJP1.node[1].wlan.mac 	"sent packet within AC 1" 	40
scalar scenarioPRJP1.node[1].wlan.mac 	"sent packet within AC 2" 	0
scalar scenarioPRJP1.node[1].wlan.mac 	"sent packet within AC 3" 	0
scalar scenarioPRJP1.node[1].wlan.mac 	"sent in TXOP " 	0
scalar scenarioPRJP1.node[1].wlan.mac 	"sentWithoutRetry AC 0" 	906
scalar scenarioPRJP1.node[1].wlan.mac 	"sentWithoutRetry AC 1" 	40
scalar scenarioPRJP1.node[1].wlan.mac 	"sentWithoutRetry AC 2" 	0
scalar scenarioPRJP1.node[1].wlan.mac 	"sentWithoutRetry AC 3" 	0
scalar scenarioPRJP1.node[1].wlan.mac 	"numGivenUp AC 0" 	267
scalar scenarioPRJP1.node[1].wlan.mac 	"numGivenUp AC 1" 	0
scalar scenarioPRJP1.node[1].wlan.mac 	"numGivenUp AC 2" 	0
scalar scenarioPRJP1.node[1].wlan.mac 	"numGivenUp AC 3" 	0
scalar scenarioPRJP1.node[1].wlan.mac 	"numDropped AC 0" 	0
scalar scenarioPRJP1.node[1].wlan.mac 	"numDropped AC 1" 	0
scalar scenarioPRJP1.node[1].wlan.mac 	"numDropped AC 2" 	0
scalar scenarioPRJP1.node[1].wlan.mac 	"numDropped AC 3" 	0
scalar scenarioPRJP1.node[1].wlan.mac 	rcvdPkFromLL:count 	45137
attr interpolationmode  none
attr source  packetReceivedFromLower
attr title  "packets received from lower layer, count"
scalar scenarioPRJP1.node[1].wlan.mac 	rcvdPkFromLL:sum(packetBytes) 	25722550
attr interpolationmode  none
attr source  packetReceivedFromLower
attr title  "packets received from lower layer, sum(packetBytes)"
scalar scenarioPRJP1.node[1].wlan.mac 	sentDownPk:count 	7244
attr interpolationmode  none
attr source  packetSentToLower
attr title  "packets sent to lower layer, count"
scalar scenarioPRJP1.node[1].wlan.mac 	sentDownPk:sum(packetBytes) 	4414926
attr interpolationmode  none
attr source  packetSentToLower
attr title  "packets sent to lower layer, sum(packetBytes)"
scalar scenarioPRJP1.node[1].wlan.mac 	rcvdPkFromHL:count 	3991
attr interpolationmode  none
attr source  packetReceivedFromUpper
attr title  "packets received from higher layer, count"
scalar scenarioPRJP1.node[1].wlan.mac 	rcvdPkFromHL:sum(packetBytes) 	3464472
attr interpolationmode  none
attr source  packetReceivedFromUpper
attr title  "packets received from higher layer, sum(packetBytes)"
scalar scenarioPRJP1.node[1].wlan.mac 	passedUpPk:count 	15337
attr interpolationmode  none
attr source  packetSentToUpper
attr title  "packets passed to higher layer, count"
scalar scenarioPRJP1.node[1].wlan.mac 	passedUpPk:sum(packetBytes) 	15111620
attr interpolationmode  none
attr source  packetSentToUpper
attr title  "packets passed to higher layer, sum(packetBytes)"
statistic scenarioPRJP1.node[1].wlan.radio 	radioChannel:histogram
field count 1
field mean 3
field stddev nan
field sum 3
field sqrsum 9
field min 3
field max 3
attr interpolationmode  sample-hold
attr source  radioChannelChanged
attr title  "Radio channel, histogram"
bin	-INF	0
bin	2	0
bin	3	1
bin	4	0
scalar scenarioPRJP1.node[1].wlan.radio 	transmissionState:count 	28976
attr interpolationmode  sample-hold
attr source  transmissionStateChanged
attr title  "Radio transmission state, count"
scalar scenarioPRJP1.node[1].wlan.radio 	receptionState:count 	105587
attr interpolationmode  sample-hold
attr source  receptionStateChanged
attr title  "Radio reception state, count"
scalar scenarioPRJP1.node[1].wlan.radio 	radioMode:count 	14490
attr interpolationmode  sample-hold
attr source  radioModeChanged
attr title  "Radio mode, count"
statistic scenarioPRJP1.node[1].wlan.radio 	symbolErrorRate:histogram
field count 0
field mean nan
field stddev nan
field sum 0
field sqrsum 0
field min nan
field max nan
attr source  symbolErrorRate
attr title  "Symbol error rate, histogram"
bin	-INF	0
bin	-0.5	0
bin	-0.46666666666667	0
bin	-0.43333333333333	0
bin	-0.4	0
bin	-0.36666666666667	0
bin	-0.33333333333333	0
bin	-0.3	0
bin	-0.26666666666667	0
bin	-0.23333333333333	0
bin	-0.2	0
bin	-0.16666666666667	0
bin	-0.13333333333333	0
bin	-0.1	0
bin	-0.066666666666667	0
bin	-0.033333333333333	0
bin	0	0
bin	0.033333333333333	0
bin	0.066666666666667	0
bin	0.1	0
bin	0.13333333333333	0
bin	0.16666666666667	0
bin	0.2	0
bin	0.23333333333333	0
bin	0.26666666666667	0
bin	0.3	0
bin	0.33333333333333	0
bin	0.36666666666667	0
bin	0.4	0
bin	0.43333333333333	0
bin	0.46666666666667	0
bin	0.5	0
statistic scenarioPRJP1.node[1].wlan.radio 	bitErrorRate:histogram
field count 0
field mean nan
field stddev nan
field sum 0
field sqrsum 0
field min nan
field max nan
attr source  bitErrorRate
attr title  "Bit error rate, histogram"
bin	-INF	0
bin	-0.5	0
bin	-0.46666666666667	0
bin	-0.43333333333333	0
bin	-0.4	0
bin	-0.36666666666667	0
bin	-0.33333333333333	0
bin	-0.3	0
bin	-0.26666666666667	0
bin	-0.23333333333333	0
bin	-0.2	0
bin	-0.16666666666667	0
bin	-0.13333333333333	0
bin	-0.1	0
bin	-0.066666666666667	0
bin	-0.033333333333333	0
bin	0	0
bin	0.033333333333333	0
bin	0.066666666666667	0
bin	0.1	0
bin	0.13333333333333	0
bin	0.16666666666667	0
bin	0.2	0
bin	0.23333333333333	0
bin	0.26666666666667	0
bin	0.3	0
bin	0.33333333333333	0
bin	0.36666666666667	0
bin	0.4	0
bin	0.43333333333333	0
bin	0.46666666666667	0
bin	0.5	0
statistic scenarioPRJP1.node[1].wlan.radio 	packetErrorRate:histogram
field count 45137
field mean 0.087546330977175
field stddev 0.27600188436337
field sum 3951.5787413167
field sqrsum 3784.273105579
field min 0
field max 1
attr source  packetErrorRate
attr title  "Packet error rate, histogram"
bin	-INF	0
bin	-0.49999999973328	0
bin	-0.43333333310218	0
bin	-0.36666666647107	0
bin	-0.29999999983997	0
bin	-0.23333333320886	0
bin	-0.16666666657776	0
bin	-0.099999999946656	0
bin	-0.033333333315552	40508
bin	0.033333333315552	269
bin	0.099999999946656	147
bin	0.16666666657776	90
bin	0.23333333320886	60
bin	0.29999999983997	63
bin	0.36666666647107	51
bin	0.43333333310218	43
bin	0.49999999973328	46
bin	0.56666666636438	46
bin	0.63333333299549	50
bin	0.69999999962659	47
bin	0.7666666662577	37
bin	0.8333333328888	66
bin	0.89999999951991	95
bin	0.96666666615101	3519
bin	1.0333333327821	0
bin	1.0999999994132	0
bin	1.1666666660443	0
bin	1.2333333326754	0
bin	1.2999999993065	0
bin	1.3666666659376	0
bin	1.4333333325687	0
bin	1.4999999991998	0
statistic scenarioPRJP1.node[1].wlan.radio 	minSNIR:histogram
field count 45137
field mean 12815.702557389
field stddev 74900.124972012
field sum 578462366.33288
field sqrsum 2.6062765797063e+14
field min 0.00026099091432736
field max 753239.71923443
attr source  minSNIR
attr title  "Min SNIR, histogram"
bin	-INF	0
bin	-14858.375061416	0
bin	-12877.029964035	0
bin	-10895.684866655	0
bin	-8914.3397692746	0
bin	-6932.9946718942	0
bin	-4951.6495745138	0
bin	-2970.3044771334	0
bin	-988.95937975298	33713
bin	992.38571762742	3781
bin	2973.7308150078	1443
bin	4955.0759123882	786
bin	6936.4210097686	800
bin	8917.766107149	368
bin	10899.111204529	375
bin	12880.45630191	314
bin	14861.80139929	295
bin	16843.146496671	149
bin	18824.491594051	127
bin	20805.836691431	134
bin	22787.181788812	242
bin	24768.526886192	119
bin	26749.871983573	87
bin	28731.217080953	89
bin	30712.562178333	60
bin	32693.907275714	71
bin	34675.252373094	45
bin	36656.597470475	39
bin	38637.942567855	65
bin	40619.287665235	118
bin	42600.632762616	143
bin	44581.977859996	1774
scalar scenarioPRJP1.node[1].lo0.lo 	droppedPkBitError:count 	0
attr interpolationmode  none
attr source  dropPkBitError
attr title  "packets dropped/bit error, count"
scalar scenarioPRJP1.node[1].lo0.lo 	droppedPkBitError:sum(packetBytes) 	0
attr interpolationmode  none
attr source  dropPkBitError
attr title  "packets dropped/bit error, sum(packetBytes)"
scalar scenarioPRJP1.node[1].lo0.lo 	rcvdPkFromHL:count 	9
attr interpolationmode  none
attr source  packetReceivedFromUpper
attr title  "packets received from higher layer, count"
scalar scenarioPRJP1.node[1].lo0.lo 	rcvdPkFromHL:sum(packetBytes) 	504
attr interpolationmode  none
attr source  packetReceivedFromUpper
attr title  "packets received from higher layer, sum(packetBytes)"
scalar scenarioPRJP1.node[1].lo0.lo 	passedUpPk:count 	9
attr interpolationmode  none
attr source  packetSentToUpper
attr title  "packets passed to higher layer, count"
scalar scenarioPRJP1.node[1].lo0.lo 	passedUpPk:sum(packetBytes) 	504
attr interpolationmode  none
attr source  packetSentToUpper
attr title  "packets passed to higher layer, sum(packetBytes)"
scalar scenarioPRJP1.node[21].app 	"Total sent" 	2606
scalar scenarioPRJP1.node[21].app 	"Total received" 	176
scalar scenarioPRJP1.node[21].app 	"Total deleted" 	0
scalar scenarioPRJP1.node[21].app 	dropPk:count 	0
attr interpolationmode  none
attr source  dropPk
attr title  "packets dropped, count"
scalar scenarioPRJP1.node[21].app 	dropPk:sum(packetBytes) 	0
attr interpolationmode  none
attr source  dropPk
attr title  "packets dropped, sum(packetBytes)"
scalar scenarioPRJP1.node[21].app 	outOfOrderPk:count 	0
attr interpolationmode  none
attr source  outOfOrderPk
attr title  "packets received out of order, count"
scalar scenarioPRJP1.node[21].app 	outOfOrderPk:sum(packetBytes) 	0
attr interpolationmode  none
attr source  outOfOrderPk
attr title  "packets received out of order, sum(packetBytes)"
scalar scenarioPRJP1.node[21].app 	rcvdPk:count 	176
attr interpolationmode  none
attr source  rcvdPk
attr title  "packets received, count"
scalar scenarioPRJP1.node[21].app 	rcvdPk:sum(packetBytes) 	90112
attr interpolationmode  none
attr source  rcvdPk
attr title  "packets received, sum(packetBytes)"
statistic scenarioPRJP1.node[21].app 	endToEndDelay:histogram
field count 176
field mean 0.10512392448439
field stddev 0.36540185346379
field sum 18.501810709252
field sqrsum 25.310722991909
field min 0.00094504707
field max 2.004535644944
attr interpolationmode  none
attr source  messageAge(rcvdPk)
attr title  "delay, histogram"
attr unit  s
bin	-INF	0
bin	-0.9997625704985	0
bin	-0.86633488633403	0
bin	-0.73290720216957	0
bin	-0.5994795180051	0
bin	-0.46605183384063	0
bin	-0.33262414967617	0
bin	-0.1991964655117	0
bin	-0.065768781347233	160
bin	0.067658902817233	1
bin	0.2010865869817	2
bin	0.33451427114617	0
bin	0.46794195531063	2
bin	0.6013696394751	0
bin	0.73479732363957	1
bin	0.86822500780403	1
bin	1.0016526919685	3
bin	1.135080376133	0
bin	1.2685080602974	1
bin	1.4019357444619	0
bin	1.5353634286264	0
bin	1.6687911127908	1
bin	1.8022187969553	1
bin	1.9356464811198	3
bin	2.0690741652842	0
bin	2.2025018494487	0
bin	2.3359295336132	0
bin	2.4693572177776	0
bin	2.6027849019421	0
bin	2.7362125861066	0
bin	2.869640270271	0
bin	3.0030679544355	0
scalar scenarioPRJP1.node[21].app 	sentPk:count 	2606
attr interpolationmode  none
attr source  sentPk
attr title  "packets sent, count"
scalar scenarioPRJP1.node[21].app 	sentPk:sum(packetBytes) 	1334272
attr interpolationmode  none
attr source  sentPk
attr title  "packets sent, sum(packetBytes)"
scalar scenarioPRJP1.node[21].udp 	droppedPkBadChecksum:count 	0
attr interpolationmode  none
attr title  "packets dropped (checksum error), count"
scalar scenarioPRJP1.node[21].udp 	droppedPkWrongPort:count 	0
attr interpolationmode  none
attr title  "packets dropped (wrong port), count"
scalar scenarioPRJP1.node[21].udp 	passedUpPk:count 	176
attr interpolationmode  none
attr title  "packets passed up, count"
scalar scenarioPRJP1.node[21].udp 	rcvdPk:count 	176
attr interpolationmode  none
attr source  rcvdPk
attr title  "packets received, count"
scalar scenarioPRJP1.node[21].udp 	rcvdPk:sum(packetBytes) 	91520
attr interpolationmode  none
attr source  rcvdPk
attr title  "packets received, sum(packetBytes)"
scalar scenarioPRJP1.node[21].udp 	sentPk:count 	2606
attr interpolationmode  none
attr source  sentPk
attr title  "packets sent, count"
scalar scenarioPRJP1.node[21].udp 	sentPk:sum(packetBytes) 	1355120
attr interpolationmode  none
attr source  sentPk
attr title  "packets sent, sum(packetBytes)"
scalar scenarioPRJP1.node[21].networkLayer.arp 	failedARPResolution:count 	7
attr title  "ARP failed resolutions, count"
scalar scenarioPRJP1.node[21].networkLayer.arp 	completedARPResolution:count 	395
attr title  "ARP completed resolutions, count"
scalar scenarioPRJP1.node[21].networkLayer.arp 	initiatedARPResolution:count 	66
attr title  "ARP initiated resolutions, count"
scalar scenarioPRJP1.node[21].networkLayer.arp 	sentReply:count 	45
attr title  "ARP replies sent, count"
scalar scenarioPRJP1.node[21].networkLayer.arp 	sentReq:count 	102
attr title  "ARP request sent, count"
scalar scenarioPRJP1.node[21].mobility 	startTime 	2.5
scalar scenarioPRJP1.node[21].mobility 	totalTime 	947.5
scalar scenarioPRJP1.node[21].mobility 	stopTime 	950
scalar scenarioPRJP1.node[21].mobility 	minSpeed 	2.4755438254594e-13
scalar scenarioPRJP1.node[21].mobility 	maxSpeed 	13.994427303139
scalar scenarioPRJP1.node[21].mobility 	totalDistance 	7449.3147944448
scalar scenarioPRJP1.node[21].mobility 	totalCO2Emission 	2063.298345777
scalar scenarioPRJP1.node[21].wlan.mgmt 	dataQueueLen:max 	0
attr interpolationmode  sample-hold
attr title  "data queue length, max"
scalar scenarioPRJP1.node[21].wlan.mgmt 	dataQueueLen:timeavg 	0
attr interpolationmode  sample-hold
attr title  "data queue length, timeavg"
scalar scenarioPRJP1.node[21].wlan.mgmt 	dropPkByQueue:count 	0
attr interpolationmode  none
attr source  dropPkByQueue
attr title  "packets dropped by queue, count"
scalar scenarioPRJP1.node[21].wlan.mgmt 	dropPkByQueue:sum(packetBytes) 	0
attr interpolationmode  none
attr source  dropPkByQueue
attr title  "packets dropped by queue, sum(packetBytes)"
scalar scenarioPRJP1.node[21].wlan.mac 	"number of received packets" 	1434
scalar scenarioPRJP1.node[21].wlan.mac 	"number of collisions" 	5301
scalar scenarioPRJP1.node[21].wlan.mac 	"number of internal collisions" 	0
scalar scenarioPRJP1.node[21].wlan.mac 	"number of retry for AC 0" 	2581
scalar scenarioPRJP1.node[21].wlan.mac 	"number of retry for AC 1" 	84
scalar scenarioPRJP1.node[21].wlan.mac 	"number of retry for AC 2" 	0
scalar scenarioPRJP1.node[21].wlan.mac 	"number of retry for AC 3" 	0
scalar scenarioPRJP1.node[21].wlan.mac 	"sent and received bits" 	24028096
scalar scenarioPRJP1.node[21].wlan.mac 	"sent packet within AC 0" 	457
scalar scenarioPRJP1.node[21].wlan.mac 	"sent packet within AC 1" 	24
scalar scenarioPRJP1.node[21].wlan.mac 	"sent packet within AC 2" 	0
scalar scenarioPRJP1.node[21].wlan.mac 	"sent packet within AC 3" 	0
scalar scenarioPRJP1.node[21].wlan.mac 	"sent in TXOP " 	0
scalar scenarioPRJP1.node[21].wlan.mac 	"sentWithoutRetry AC 0" 	418
scalar scenarioPRJP1.node[21].wlan.mac 	"sentWithoutRetry AC 1" 	24
scalar scenarioPRJP1.node[21].wlan.mac 	"sentWithoutRetry AC 2" 	0
scalar scenarioPRJP1.node[21].wlan.mac 	"sentWithoutRetry AC 3" 	0
scalar scenarioPRJP1.node[21].wlan.mac 	"numGivenUp AC 0" 	412
scalar scenarioPRJP1.node[21].wlan.mac 	"numGivenUp AC 1" 	14
scalar scenarioPRJP1.node[21].wlan.mac 	"numGivenUp AC 2" 	0
scalar scenarioPRJP1.node[21].wlan.mac 	"numGivenUp AC 3" 	0
scalar scenarioPRJP1.node[21].wlan.mac 	"numDropped AC 0" 	0
scalar scenarioPRJP1.node[21].wlan.mac 	"numDropped AC 1" 	0
scalar scenarioPRJP1.node[21].wlan.mac 	"numDropped AC 2" 	0
scalar scenarioPRJP1.node[21].wlan.mac 	"numDropped AC 3" 	0
scalar scenarioPRJP1.node[21].wlan.mac 	rcvdPkFromLL:count 	39310
attr interpolationmode  none
attr source  packetReceivedFromLower
attr title  "packets received from lower layer, count"
scalar scenarioPRJP1.node[21].wlan.mac 	rcvdPkFromLL:sum(packetBytes) 	23022368
attr interpolationmode  none
attr source  packetReceivedFromLower
attr title  "packets received from lower layer, sum(packetBytes)"
scalar scenarioPRJP1.node[21].wlan.mac 	sentDownPk:count 	7691
attr interpolationmode  none
attr source  packetSentToLower
attr title  "packets sent to lower layer, count"
scalar scenarioPRJP1.node[21].wlan.mac 	sentDownPk:sum(packetBytes) 	4637788
attr interpolationmode  none
attr source  packetSentToLower
attr title  "packets sent to lower layer, sum(packetBytes)"
scalar scenarioPRJP1.node[21].wlan.mac 	rcvdPkFromHL:count 	3592
attr interpolationmode  none
attr source  packetReceivedFromUpper
attr title  "packets received from higher layer, count"
scalar scenarioPRJP1.node[21].wlan.mac 	rcvdPkFromHL:sum(packetBytes) 	3225216
attr interpolationmode  none
attr source  packetReceivedFromUpper
attr title  "packets received from higher layer, sum(packetBytes)"
scalar scenarioPRJP1.node[21].wlan.mac 	passedUpPk:count 	13299
attr interpolationmode  none
attr source  packetSentToUpper
attr title  "packets passed to higher layer, count"
scalar scenarioPRJP1.node[21].wlan.mac 	passedUpPk:sum(packetBytes) 	13221688
attr interpolationmode  none
attr source  packetSentToUpper
attr title  "packets passed to higher layer, sum(packetBytes)"
[...]
attr title  "packets received from higher layer, sum(packetBytes)"
scalar scenarioPRJP1.node[57].wlan.mac 	passedUpPk:count 	10705
attr interpolationmode  none
attr source  packetSentToUpper
attr title  "packets passed to higher layer, count"
scalar scenarioPRJP1.node[57].wlan.mac 	passedUpPk:sum(packetBytes) 	10639136
attr interpolationmode  none
attr source  packetSentToUpper
attr title  "packets passed to higher layer, sum(packetBytes)"
statistic scenarioPRJP1.node[57].wlan.radio 	radioChannel:histogram
field count 1
field mean 3
field stddev nan
field sum 3
field sqrsum 9
field min 3
field max 3
attr interpolationmode  sample-hold
attr source  radioChannelChanged
attr title  "Radio channel, histogram"
bin	-INF	0
bin	2	0
bin	3	1
bin	4	0
scalar scenarioPRJP1.node[57].wlan.radio 	transmissionState:count 	24660
attr interpolationmode  sample-hold
attr source  transmissionStateChanged
attr title  "Radio transmission state, count"
scalar scenarioPRJP1.node[57].wlan.radio 	receptionState:count 	75875
attr interpolationmode  sample-hold
attr source  receptionStateChanged
attr title  "Radio reception state, count"
scalar scenarioPRJP1.node[57].wlan.radio 	radioMode:count 	12332
attr interpolationmode  sample-hold
attr source  radioModeChanged
attr title  "Radio mode, count"
statistic scenarioPRJP1.node[57].wlan.radio 	symbolErrorRate:histogram
field count 0
field mean nan
field stddev nan
field sum 0
field sqrsum 0
field min nan
field max nan
attr source  symbolErrorRate
attr title  "Symbol error rate, histogram"
bin	-INF	0
bin	-0.5	0
bin	-0.46666666666667	0
bin	-0.43333333333333	0
bin	-0.4	0
bin	-0.36666666666667	0
bin	-0.33333333333333	0
bin	-0.3	0
bin	-0.26666666666667	0
bin	-0.23333333333333	0
bin	-0.2	0
bin	-0.16666666666667	0
bin	-0.13333333333333	0
bin	-0.1	0
bin	-0.066666666666667	0
bin	-0.033333333333333	0
bin	0	0
bin	0.033333333333333	0
bin	0.066666666666667	0
bin	0.1	0
bin	0.13333333333333	0
bin	0.16666666666667	0
bin	0.2	0
bin	0.23333333333333	0
bin	0.26666666666667	0
bin	0.3	0
bin	0.33333333333333	0
bin	0.36666666666667	0
bin	0.4	0
bin	0.43333333333333	0
bin	0.46666666666667	0
bin	0.5	0
statistic scenarioPRJP1.node[57].wlan.radio 	bitErrorRate:histogram
field count 0
field mean nan
field stddev nan
field sum 0
field sqrsum 0
field min nan
field max nan
attr source  bitErrorRate
attr title  "Bit error rate, histogram"
bin	-INF	0
bin	-0.5	0
bin	-0.46666666666667	0
bin	-0.43333333333333	0
bin	-0.4	0
bin	-0.36666666666667	0
bin	-0.33333333333333	0
bin	-0.3	0
bin	-0.26666666666667	0
bin	-0.23333333333333	0
bin	-0.2	0
bin	-0.16666666666667	0
bin	-0.13333333333333	0
bin	-0.1	0
bin	-0.066666666666667	0
bin	-0.033333333333333	0
bin	0	0
bin	0.033333333333333	0
bin	0.066666666666667	0
bin	0.1	0
bin	0.13333333333333	0
bin	0.16666666666667	0
bin	0.2	0
bin	0.23333333333333	0
bin	0.26666666666667	0
bin	0.3	0
bin	0.33333333333333	0
bin	0.36666666666667	0
bin	0.4	0
bin	0.43333333333333	0
bin	0.46666666666667	0
bin	0.5	0
statistic scenarioPRJP1.node[57].wlan.radio 	packetErrorRate:histogram
field count 31497
field mean 0.089921507976205
field stddev 0.27915876435088
field sum 2832.2577367265
field sqrsum 2709.152063189
field min 0
field max 1
attr source  packetErrorRate
attr title  "Packet error rate, histogram"
bin	-INF	0
bin	-0.5	0
bin	-0.46666666666667	0
bin	-0.43333333333333	0
bin	-0.4	0
bin	-0.36666666666667	0
bin	-0.33333333333333	0
bin	-0.3	0
bin	-0.26666666666667	0
bin	-0.23333333333333	0
bin	-0.2	0
bin	-0.16666666666667	0
bin	-0.13333333333333	0
bin	-0.1	0
bin	-0.066666666666667	0
bin	-0.033333333333333	0
bin	0	28155
bin	0.033333333333333	132
bin	0.066666666666667	92
bin	0.1	43
bin	0.13333333333333	42
bin	0.16666666666667	38
bin	0.2	31
bin	0.23333333333333	21
bin	0.26666666666667	31
bin	0.3	30
bin	0.33333333333333	13
bin	0.36666666666667	20
bin	0.4	19
bin	0.43333333333333	23
bin	0.46666666666667	20
bin	0.5	2787
statistic scenarioPRJP1.node[57].wlan.radio 	minSNIR:histogram
field count 31497
field mean 13704.577209716
field stddev 77910.201880716
field sum 431653068.37442
field sqrsum 1.9709632885358e+14
field min 0.0011473694769105
field max 753239.71923443
attr source  minSNIR
attr title  "Min SNIR, histogram"
bin	-INF	0
bin	-14829.528358349	0
bin	-12850.084007313	0
bin	-10870.639656277	0
bin	-8891.1953052415	0
bin	-6911.7509542056	0
bin	-4932.3066031698	0
bin	-2952.8622521339	0
bin	-973.41790109805	23427
bin	1006.0264499378	2584
bin	2985.4708009737	905
bin	4964.9151520095	466
bin	6944.3595030454	357
bin	8923.8038540813	358
bin	10903.248205117	355
bin	12882.692556153	197
bin	14862.136907189	229
bin	16841.581258225	104
bin	18821.025609261	146
bin	20800.469960296	122
bin	22779.914311332	185
bin	24759.358662368	89
bin	26738.803013404	86
bin	28718.24736444	74
bin	30697.691715476	73
bin	32677.136066512	58
bin	34656.580417548	46
bin	36636.024768583	37
bin	38615.469119619	25
bin	40594.913470655	91
bin	42574.357821691	87
bin	44553.802172727	1396
scalar scenarioPRJP1.node[57].lo0.lo 	droppedPkBitError:count 	0
attr interpolationmode  none
attr source  dropPkBitError
attr title  "packets dropped/bit error, count"
scalar scenarioPRJP1.node[57].lo0.lo 	droppedPkBitError:sum(packetBytes) 	0
attr interpolationmode  none
attr source  dropPkBitError
attr title  "packets dropped/bit error, sum(packetBytes)"
scalar scenarioPRJP1.node[57].lo0.lo 	rcvdPkFromHL:count 	6
attr interpolationmode  none
attr source  packetReceivedFromUpper
attr title  "packets received from higher layer, count"
scalar scenarioPRJP1.node[57].lo0.lo 	rcvdPkFromHL:sum(packetBytes) 	336
attr interpolationmode  none
attr source  packetReceivedFromUpper
attr title  "packets received from higher layer, sum(packetBytes)"
scalar scenarioPRJP1.node[57].lo0.lo 	passedUpPk:count 	6
attr interpolationmode  none
attr source  packetSentToUpper
attr title  "packets passed to higher layer, count"
scalar scenarioPRJP1.node[57].lo0.lo 	passedUpPk:sum(packetBytes) 	336
attr interpolationmode  none
attr source  packetSentToUpper
attr title  "packets passed to higher layer, sum(packetBytes)"
scalar scenarioPRJP1.node[70].app 	"Total sent" 	2599
scalar scenarioPRJP1.node[70].app 	"Total received" 	191
scalar scenarioPRJP1.node[70].app 	"Total deleted" 	0
scalar scenarioPRJP1.node[70].app 	dropPk:count 	0
attr interpolationmode  none
attr source  dropPk
attr title  "packets dropped, count"
scalar scenarioPRJP1.node[70].app 	dropPk:sum(packetBytes) 	0
attr interpolationmode  none
attr source  dropPk
attr title  "packets dropped, sum(packetBytes)"
scalar scenarioPRJP1.node[70].app 	outOfOrderPk:count 	0
attr interpolationmode  none
attr source  outOfOrderPk
attr title  "packets received out of order, count"
scalar scenarioPRJP1.node[70].app 	outOfOrderPk:sum(packetBytes) 	0
attr interpolationmode  none
attr source  outOfOrderPk
attr title  "packets received out of order, sum(packetBytes)"
scalar scenarioPRJP1.node[70].app 	rcvdPk:count 	191
attr interpolationmode  none
attr source  rcvdPk
attr title  "packets received, count"
scalar scenarioPRJP1.node[70].app 	rcvdPk:sum(packetBytes) 	97792
attr interpolationmode  none
attr source  rcvdPk
attr title  "packets received, sum(packetBytes)"
statistic scenarioPRJP1.node[70].app 	endToEndDelay:histogram
field count 191
field mean 0.14671709911487
field stddev 0.43717758300177
field sum 28.022965930941
field sqrsum 40.425053695044
field min 0.000939837235
field max 2.055308644249
attr interpolationmode  none
attr source  messageAge(rcvdPk)
attr title  "delay, histogram"
attr unit  s
bin	-INF	0
bin	-1.026244566272	0
bin	-0.8892866458044	0
bin	-0.7523287253368	0
bin	-0.6153708048692	0
bin	-0.4784128844016	0
bin	-0.341454963934	0
bin	-0.2044970434664	0
bin	-0.0675391229988	169
bin	0.0694187974688	2
bin	0.2063767179364	1
bin	0.343334638404	0
bin	0.4802925588716	1
bin	0.6172504793392	0
bin	0.7542083998068	2
bin	0.8911663202744	5
bin	1.028124240742	2
bin	1.1650821612096	1
bin	1.3020400816772	0
bin	1.4389980021448	0
bin	1.5759559226124	0
bin	1.71291384308	3
bin	1.8498717635476	0
bin	1.9868296840152	5
bin	2.1237876044828	0
bin	2.2607455249504	0
bin	2.397703445418	0
bin	2.5346613658856	0
bin	2.6716192863532	0
bin	2.8085772068208	0
bin	2.9455351272884	0
bin	3.082493047756	0
scalar scenarioPRJP1.node[70].app 	sentPk:count 	2599
attr interpolationmode  none
attr source  sentPk
attr title  "packets sent, count"
scalar scenarioPRJP1.node[70].app 	sentPk:sum(packetBytes) 	1330688
attr interpolationmode  none
attr source  sentPk
attr title  "packets sent, sum(packetBytes)"
scalar scenarioPRJP1.node[70].udp 	droppedPkBadChecksum:count 	0
attr interpolationmode  none
attr title  "packets dropped (checksum error), count"
scalar scenarioPRJP1.node[70].udp 	droppedPkWrongPort:count 	0
attr interpolationmode  none
attr title  "packets dropped (wrong port), count"
scalar scenarioPRJP1.node[70].udp 	passedUpPk:count 	191
attr interpolationmode  none
attr title  "packets passed up, count"
scalar scenarioPRJP1.node[70].udp 	rcvdPk:count 	191
attr interpolationmode  none
attr source  rcvdPk
attr title  "packets received, count"
scalar scenarioPRJP1.node[70].udp 	rcvdPk:sum(packetBytes) 	99320
attr interpolationmode  none
attr source  rcvdPk
attr title  "packets received, sum(packetBytes)"
scalar scenarioPRJP1.node[70].udp 	sentPk:count 	2599
attr interpolationmode  none
attr source  sentPk
attr title  "packets sent, count"
scalar scenarioPRJP1.node[70].udp 	sentPk:sum(packetBytes) 	1351480
attr interpolationmode  none
attr source  sentPk
attr title  "packets sent, sum(packetBytes)"
scalar scenarioPRJP1.node[70].networkLayer.arp 	failedARPResolution:count 	4
attr title  "ARP failed resolutions, count"
scalar scenarioPRJP1.node[70].networkLayer.arp 	completedARPResolution:count 	377
attr title  "ARP completed resolutions, count"
scalar scenarioPRJP1.node[70].networkLayer.arp 	initiatedARPResolution:count 	60
attr title  "ARP initiated resolutions, count"
scalar scenarioPRJP1.node[70].networkLayer.arp 	sentReply:count 	44
attr title  "ARP replies sent, count"
scalar scenarioPRJP1.node[70].networkLayer.arp 	sentReq:count 	82
attr title  "ARP request sent, count"
scalar scenarioPRJP1.node[70].mobility 	startTime 	7.3
scalar scenarioPRJP1.node[70].mobility 	totalTime 	942.7
scalar scenarioPRJP1.node[70].mobility 	stopTime 	950
scalar scenarioPRJP1.node[70].mobility 	minSpeed 	2.4756052956233e-13
scalar scenarioPRJP1.node[70].mobility 	maxSpeed 	12.665630287358
scalar scenarioPRJP1.node[70].mobility 	totalDistance 	6368.2231617557
scalar scenarioPRJP1.node[70].mobility 	totalCO2Emission 	1830.4298500781
scalar scenarioPRJP1.node[70].wlan.mgmt 	dataQueueLen:max 	2
attr interpolationmode  sample-hold
attr title  "data queue length, max"
scalar scenarioPRJP1.node[70].wlan.mgmt 	dataQueueLen:timeavg 	0
attr interpolationmode  sample-hold
attr title  "data queue length, timeavg"
scalar scenarioPRJP1.node[70].wlan.mgmt 	dropPkByQueue:count 	0
attr interpolationmode  none
attr source  dropPkByQueue
attr title  "packets dropped by queue, count"
scalar scenarioPRJP1.node[70].wlan.mgmt 	dropPkByQueue:sum(packetBytes) 	0
attr interpolationmode  none
attr source  dropPkByQueue
attr title  "packets dropped by queue, sum(packetBytes)"
scalar scenarioPRJP1.node[70].wlan.mac 	"number of received packets" 	1999
scalar scenarioPRJP1.node[70].wlan.mac 	"number of collisions" 	4854
scalar scenarioPRJP1.node[70].wlan.mac 	"number of internal collisions" 	3
scalar scenarioPRJP1.node[70].wlan.mac 	"number of retry for AC 0" 	2798
scalar scenarioPRJP1.node[70].wlan.mac 	"number of retry for AC 1" 	72
scalar scenarioPRJP1.node[70].wlan.mac 	"number of retry for AC 2" 	0
scalar scenarioPRJP1.node[70].wlan.mac 	"number of retry for AC 3" 	0
scalar scenarioPRJP1.node[70].wlan.mac 	"sent and received bits" 	24428192
scalar scenarioPRJP1.node[70].wlan.mac 	"sent packet within AC 0" 	656
scalar scenarioPRJP1.node[70].wlan.mac 	"sent packet within AC 1" 	32
scalar scenarioPRJP1.node[70].wlan.mac 	"sent packet within AC 2" 	0
scalar scenarioPRJP1.node[70].wlan.mac 	"sent packet within AC 3" 	0
scalar scenarioPRJP1.node[70].wlan.mac 	"sent in TXOP " 	0
scalar scenarioPRJP1.node[70].wlan.mac 	"sentWithoutRetry AC 0" 	627
scalar scenarioPRJP1.node[70].wlan.mac 	"sentWithoutRetry AC 1" 	31
scalar scenarioPRJP1.node[70].wlan.mac 	"sentWithoutRetry AC 2" 	0
scalar scenarioPRJP1.node[70].wlan.mac 	"sentWithoutRetry AC 3" 	0
scalar scenarioPRJP1.node[70].wlan.mac 	"numGivenUp AC 0" 	455
scalar scenarioPRJP1.node[70].wlan.mac 	"numGivenUp AC 1" 	11
scalar scenarioPRJP1.node[70].wlan.mac 	"numGivenUp AC 2" 	0
scalar scenarioPRJP1.node[70].wlan.mac 	"numGivenUp AC 3" 	0
scalar scenarioPRJP1.node[70].wlan.mac 	"numDropped AC 0" 	0
scalar scenarioPRJP1.node[70].wlan.mac 	"numDropped AC 1" 	0
scalar scenarioPRJP1.node[70].wlan.mac 	"numDropped AC 2" 	0
scalar scenarioPRJP1.node[70].wlan.mac 	"numDropped AC 3" 	0
scalar scenarioPRJP1.node[70].wlan.mac 	rcvdPkFromLL:count 	39773
attr interpolationmode  none
attr source  packetReceivedFromLower
attr title  "packets received from lower layer, count"
scalar scenarioPRJP1.node[70].wlan.mac 	rcvdPkFromLL:sum(packetBytes) 	22396552
attr interpolationmode  none
attr source  packetReceivedFromLower
attr title  "packets received from lower layer, sum(packetBytes)"
scalar scenarioPRJP1.node[70].wlan.mac 	sentDownPk:count 	8632
attr interpolationmode  none
attr source  packetSentToLower
attr title  "packets sent to lower layer, count"
scalar scenarioPRJP1.node[70].wlan.mac 	sentDownPk:sum(packetBytes) 	4853114
attr interpolationmode  none
attr source  packetSentToLower
attr title  "packets sent to lower layer, sum(packetBytes)"
scalar scenarioPRJP1.node[70].wlan.mac 	rcvdPkFromHL:count 	3766
attr interpolationmode  none
attr source  packetReceivedFromUpper
attr title  "packets received from higher layer, count"
scalar scenarioPRJP1.node[70].wlan.mac 	rcvdPkFromHL:sum(packetBytes) 	3301256
attr interpolationmode  none
attr source  packetReceivedFromUpper
attr title  "packets received from higher layer, sum(packetBytes)"
scalar scenarioPRJP1.node[70].wlan.mac 	passedUpPk:count 	13054
attr interpolationmode  none
attr source  packetSentToUpper
attr title  "packets passed to higher layer, count"
scalar scenarioPRJP1.node[70].wlan.mac 	passedUpPk:sum(packetBytes) 	12897440
attr interpolationmode  none
attr source  packetSentToUpper
attr title  "packets passed to higher layer, sum(packetBytes)"
statistic scenarioPRJP1.node[70].wlan.radio 	radioChannel:histogram
field count 1
field mean 3
field stddev nan
field sum 3
field sqrsum 9
field min 3
field max 3
attr interpolationmode  sample-hold
attr source  radioChannelChanged
attr title  "Radio channel, histogram"
bin	-INF	0
bin	2	0
bin	3	1
bin	4	0
scalar scenarioPRJP1.node[70].wlan.radio 	transmissionState:count 	34528
attr interpolationmode  sample-hold
attr source  transmissionStateChanged
attr title  "Radio transmission state, count"
scalar scenarioPRJP1.node[70].wlan.radio 	receptionState:count 	97420
attr interpolationmode  sample-hold
attr source  receptionStateChanged
attr title  "Radio reception state, count"
scalar scenarioPRJP1.node[70].wlan.radio 	radioMode:count 	17266
attr interpolationmode  sample-hold
attr source  radioModeChanged
attr title  "Radio mode, count"
statistic scenarioPRJP1.node[70].wlan.radio 	symbolErrorRate:histogram
field count 0
field mean nan
field stddev nan
field sum 0
field sqrsum 0
field min nan
field max nan
attr source  symbolErrorRate
attr title  "Symbol error rate, histogram"
bin	-INF	0
bin	-0.5	0
bin	-0.46666666666667	0
bin	-0.43333333333333	0
bin	-0.4	0
bin	-0.36666666666667	0
bin	-0.33333333333333	0
bin	-0.3	0
bin	-0.26666666666667	0
bin	-0.23333333333333	0
bin	-0.2	0
bin	-0.16666666666667	0
bin	-0.13333333333333	0
bin	-0.1	0
bin	-0.066666666666667	0
bin	-0.033333333333333	0
bin	0	0
bin	0.033333333333333	0
bin	0.066666666666667	0
bin	0.1	0
bin	0.13333333333333	0
bin	0.16666666666667	0
bin	0.2	0
bin	0.23333333333333	0
bin	0.26666666666667	0
bin	0.3	0
bin	0.33333333333333	0
bin	0.36666666666667	0
bin	0.4	0
bin	0.43333333333333	0
bin	0.46666666666667	0
bin	0.5	0
statistic scenarioPRJP1.node[70].wlan.radio 	bitErrorRate:histogram
field count 0
field mean nan
field stddev nan
field sum 0
field sqrsum 0
field min nan
field max nan
attr source  bitErrorRate
attr title  "Bit error rate, histogram"
bin	-INF	0
bin	-0.5	0
bin	-0.46666666666667	0
bin	-0.43333333333333	0
bin	-0.4	0
bin	-0.36666666666667	0
bin	-0.33333333333333	0
bin	-0.3	0
bin	-0.26666666666667	0
bin	-0.23333333333333	0
bin	-0.2	0
bin	-0.16666666666667	0
bin	-0.13333333333333	0
bin	-0.1	0
bin	-0.066666666666667	0
bin	-0.033333333333333	0
bin	0	0
bin	0.033333333333333	0
bin	0.066666666666667	0
bin	0.1	0
bin	0.13333333333333	0
bin	0.16666666666667	0
bin	0.2	0
bin	0.23333333333333	0
bin	0.26666666666667	0
bin	0.3	0
bin	0.33333333333333	0
bin	0.36666666666667	0
bin	0.4	0
bin	0.43333333333333	0
bin	0.46666666666667	0
bin	0.5	0
statistic scenarioPRJP1.node[70].wlan.radio 	packetErrorRate:histogram
field count 39773
field mean 0.11655777803126
field stddev 0.31397768393451
field sum 4635.8525056373
field sqrsum 4461.1474148829
field min 0
field max 1
attr source  packetErrorRate
attr title  "Packet error rate, histogram"
bin	-INF	0
bin	-0.5	0
bin	-0.46666666666667	0
bin	-0.43333333333333	0
bin	-0.4	0
bin	-0.36666666666667	0
bin	-0.33333333333333	0
bin	-0.3	0
bin	-0.26666666666667	0
bin	-0.23333333333333	0
bin	-0.2	0
bin	-0.16666666666667	0
bin	-0.13333333333333	0
bin	-0.1	0
bin	-0.066666666666667	0
bin	-0.033333333333333	0
bin	0	34408
bin	0.033333333333333	186
bin	0.066666666666667	101
bin	0.1	82
bin	0.13333333333333	64
bin	0.16666666666667	54
bin	0.2	48
bin	0.23333333333333	49
bin	0.26666666666667	40
bin	0.3	33
bin	0.33333333333333	39
bin	0.36666666666667	29
bin	0.4	21
bin	0.43333333333333	27
bin	0.46666666666667	21
bin	0.5	4571
statistic scenarioPRJP1.node[70].wlan.radio 	minSNIR:histogram
field count 39773
field mean 6930.9641998331
field stddev 55765.362730217
field sum 275665239.11996
field sqrsum 1.2559262426565e+14
field min 0.00069023029659224
field max 1169112.1549824
attr source  minSNIR
attr title  "Min SNIR, histogram"
bin	-INF	0
bin	-21683.79660866	0
bin	-18791.083727877	0
bin	-15898.370847094	0
bin	-13005.657966311	0
bin	-10112.945085528	0
bin	-7220.232204745	0
bin	-4327.519323962	0
bin	-1434.8064431791	34050
bin	1457.9064376039	1914
bin	4350.6193183869	636
bin	7243.3321991698	409
bin	10136.045079953	380
bin	13028.757960736	158
bin	15921.470841519	161
bin	18814.183722302	201
bin	21706.896603085	617
bin	24599.609483868	79
bin	27492.322364651	76
bin	30385.035245434	87
bin	33277.748126216	70
bin	36170.461006999	86
bin	39063.173887782	30
bin	41955.886768565	24
bin	44848.599649348	35
bin	47741.312530131	82
bin	50634.025410914	17
bin	53526.738291697	19
bin	56419.45117248	21
bin	59312.164053263	13
bin	62204.876934046	34
bin	65097.589814829	574
scalar scenarioPRJP1.node[70].lo0.lo 	droppedPkBitError:count 	0
attr interpolationmode  none
attr source  dropPkBitError
attr title  "packets dropped/bit error, count"
scalar scenarioPRJP1.node[70].lo0.lo 	droppedPkBitError:sum(packetBytes) 	0
attr interpolationmode  none
attr source  dropPkBitError
attr title  "packets dropped/bit error, sum(packetBytes)"
scalar scenarioPRJP1.node[70].lo0.lo 	rcvdPkFromHL:count 	11
attr interpolationmode  none
attr source  packetReceivedFromUpper
attr title  "packets received from higher layer, count"
scalar scenarioPRJP1.node[70].lo0.lo 	rcvdPkFromHL:sum(packetBytes) 	616
attr interpolationmode  none
attr source  packetReceivedFromUpper
attr title  "packets received from higher layer, sum(packetBytes)"
scalar scenarioPRJP1.node[70].lo0.lo 	passedUpPk:count 	11
attr interpolationmode  none
attr source  packetSentToUpper
attr title  "packets passed to higher layer, count"
scalar scenarioPRJP1.node[70].lo0.lo 	passedUpPk:sum(packetBytes) 	616
attr interpolationmode  none
attr source  packetSentToUpper
attr title  "packets passed to higher layer, sum(packetBytes)"
