version 2
run OLSR-ETX-FS-75n-24-20150729-15:59:42-8668
attr configname OLSR-ETX-FS-75n
attr datetime 20150729-15:59:42
attr experiment OLSR-ETX-FS-75n
attr inifile omnetpp.ini
attr iterationvars ""
attr iterationvars2 $repetition=24
attr measurement ""
attr network Prj_Part1_propag.scenarioPRJP1
attr processid 8668
attr repetition 24
attr replication #24
attr resultdir results
attr runnumber 24
attr seedset 24

scalar scenarioPRJP1.radioMedium.propagation 	"Arrival computation count" 	39767393
scalar scenarioPRJP1.radioMedium 	"transmission count" 	537495
scalar scenarioPRJP1.radioMedium 	"radio frame send count" 	39767374
scalar scenarioPRJP1.radioMedium 	"reception computation count" 	39503555
scalar scenarioPRJP1.radioMedium 	"interference computation count" 	110179273
scalar scenarioPRJP1.radioMedium 	"reception decision computation count" 	2758634
scalar scenarioPRJP1.radioMedium 	"listening decision computation count" 	68444494
scalar scenarioPRJP1.radioMedium 	"reception cache hit" 	85.341760822412
attr unit  %
scalar scenarioPRJP1.radioMedium 	"interference cache hit" 	50
attr unit  %
scalar scenarioPRJP1.radioMedium 	"noise cache hit" 	0
attr unit  %
scalar scenarioPRJP1.radioMedium 	"snir cache hit" 	0
attr unit  %
scalar scenarioPRJP1.radioMedium 	"reception decision cache hit" 	0
attr unit  %
scalar scenarioPRJP1.node[0].app 	"Total sent" 	2610
scalar scenarioPRJP1.node[0].app 	"Total received" 	175
scalar scenarioPRJP1.node[0].app 	"Total deleted" 	0
scalar scenarioPRJP1.node[0].app 	dropPk:count 	0
attr interpolationmode  none
attr source  dropPk
attr title  "packets dropped, count"
scalar scenarioPRJP1.node[0].app 	dropPk:sum(packetBytes) 	0
attr interpolationmode  none
attr source  dropPk
attr title  "packets dropped, sum(packetBytes)"
scalar scenarioPRJP1.node[0].app 	outOfOrderPk:count 	0
attr interpolationmode  none
attr source  outOfOrderPk
attr title  "packets received out of order, count"
scalar scenarioPRJP1.node[0].app 	outOfOrderPk:sum(packetBytes) 	0
attr interpolationmode  none
attr source  outOfOrderPk
attr title  "packets received out of order, sum(packetBytes)"
scalar scenarioPRJP1.node[0].app 	rcvdPk:count 	175
attr interpolationmode  none
attr source  rcvdPk
attr title  "packets received, count"
scalar scenarioPRJP1.node[0].app 	rcvdPk:sum(packetBytes) 	89600
attr interpolationmode  none
attr source  rcvdPk
attr title  "packets received, sum(packetBytes)"
statistic scenarioPRJP1.node[0].app 	endToEndDelay:histogram
field count 175
field mean 0.06818867311392
field stddev 0.25687808938081
field sum 11.933017794936
field sqrsum 12.295322037566
field min 0.000945022686
field max 2.014089296255
attr interpolationmode  none
attr source  messageAge(rcvdPk)
attr title  "delay, histogram"
attr unit  s
bin	-INF	0
bin	-0.518121828451	0
bin	-0.44891291496607	0
bin	-0.37970400148113	0
bin	-0.3104950879962	0
bin	-0.24128617451127	0
bin	-0.17207726102633	0
bin	-0.1028683475414	0
bin	-0.033659434056467	153
bin	0.035549479428467	12
bin	0.1047583929134	0
bin	0.17396730639833	0
bin	0.24317621988327	0
bin	0.3123851333682	0
bin	0.38159404685313	0
bin	0.45080296033807	0
bin	0.520011873823	0
bin	0.58922078730793	0
bin	0.65842970079287	0
bin	0.7276386142778	2
bin	0.79684752776273	1
bin	0.86605644124767	0
bin	0.9352653547326	1
bin	1.0044742682175	5
bin	1.0736831817025	0
bin	1.1428920951874	0
bin	1.2121010086723	0
bin	1.2813099221573	0
bin	1.3505188356422	0
bin	1.4197277491271	0
bin	1.4889366626121	0
bin	1.558145576097	1
scalar scenarioPRJP1.node[0].app 	sentPk:count 	2610
attr interpolationmode  none
attr source  sentPk
attr title  "packets sent, count"
scalar scenarioPRJP1.node[0].app 	sentPk:sum(packetBytes) 	1336320
attr interpolationmode  none
attr source  sentPk
attr title  "packets sent, sum(packetBytes)"
scalar scenarioPRJP1.node[0].udp 	droppedPkBadChecksum:count 	0
attr interpolationmode  none
attr title  "packets dropped (checksum error), count"
scalar scenarioPRJP1.node[0].udp 	droppedPkWrongPort:count 	0
attr interpolationmode  none
attr title  "packets dropped (wrong port), count"
scalar scenarioPRJP1.node[0].udp 	passedUpPk:count 	175
attr interpolationmode  none
attr title  "packets passed up, count"
scalar scenarioPRJP1.node[0].udp 	rcvdPk:count 	175
attr interpolationmode  none
attr source  rcvdPk
attr title  "packets received, count"
scalar scenarioPRJP1.node[0].udp 	rcvdPk:sum(packetBytes) 	91000
attr interpolationmode  none
attr source  rcvdPk
attr title  "packets received, sum(packetBytes)"
scalar scenarioPRJP1.node[0].udp 	sentPk:count 	2610
attr interpolationmode  none
attr source  sentPk
attr title  "packets sent, count"
scalar scenarioPRJP1.node[0].udp 	sentPk:sum(packetBytes) 	1357200
attr interpolationmode  none
attr source  sentPk
attr title  "packets sent, sum(packetBytes)"
scalar scenarioPRJP1.node[0].networkLayer.arp 	failedARPResolution:count 	6
attr title  "ARP failed resolutions, count"
scalar scenarioPRJP1.node[0].networkLayer.arp 	completedARPResolution:count 	334
attr title  "ARP completed resolutions, count"
scalar scenarioPRJP1.node[0].networkLayer.arp 	initiatedARPResolution:count 	59
attr title  "ARP initiated resolutions, count"
scalar scenarioPRJP1.node[0].networkLayer.arp 	sentReply:count 	38
attr title  "ARP replies sent, count"
scalar scenarioPRJP1.node[0].networkLayer.arp 	sentReq:count 	87
attr title  "ARP request sent, count"
scalar scenarioPRJP1.node[0].mobility 	startTime 	0.1
scalar scenarioPRJP1.node[0].mobility 	totalTime 	949.9
scalar scenarioPRJP1.node[0].mobility 	stopTime 	950
scalar scenarioPRJP1.node[0].mobility 	minSpeed 	2.4755519763336e-13
scalar scenarioPRJP1.node[0].mobility 	maxSpeed 	16.797136626398
scalar scenarioPRJP1.node[0].mobility 	totalDistance 	8115.7499504515
scalar scenarioPRJP1.node[0].mobility 	totalCO2Emission 	2347.5194350248
scalar scenarioPRJP1.node[0].wlan.mgmt 	dataQueueLen:max 	1
attr interpolationmode  sample-hold
attr title  "data queue length, max"
scalar scenarioPRJP1.node[0].wlan.mgmt 	dataQueueLen:timeavg 	0
attr interpolationmode  sample-hold
attr title  "data queue length, timeavg"
scalar scenarioPRJP1.node[0].wlan.mgmt 	dropPkByQueue:count 	0
attr interpolationmode  none
attr source  dropPkByQueue
attr title  "packets dropped by queue, count"
scalar scenarioPRJP1.node[0].wlan.mgmt 	dropPkByQueue:sum(packetBytes) 	0
attr interpolationmode  none
attr source  dropPkByQueue
attr title  "packets dropped by queue, sum(packetBytes)"
scalar scenarioPRJP1.node[0].wlan.mac 	"number of received packets" 	1189
scalar scenarioPRJP1.node[0].wlan.mac 	"number of collisions" 	3685
scalar scenarioPRJP1.node[0].wlan.mac 	"number of internal collisions" 	0
scalar scenarioPRJP1.node[0].wlan.mac 	"number of retry for AC 0" 	1810
scalar scenarioPRJP1.node[0].wlan.mac 	"number of retry for AC 1" 	42
scalar scenarioPRJP1.node[0].wlan.mac 	"number of retry for AC 2" 	0
scalar scenarioPRJP1.node[0].wlan.mac 	"number of retry for AC 3" 	0
scalar scenarioPRJP1.node[0].wlan.mac 	"sent and received bits" 	22479392
scalar scenarioPRJP1.node[0].wlan.mac 	"sent packet within AC 0" 	552
scalar scenarioPRJP1.node[0].wlan.mac 	"sent packet within AC 1" 	33
scalar scenarioPRJP1.node[0].wlan.mac 	"sent packet within AC 2" 	0
scalar scenarioPRJP1.node[0].wlan.mac 	"sent packet within AC 3" 	0
scalar scenarioPRJP1.node[0].wlan.mac 	"sent in TXOP " 	0
scalar scenarioPRJP1.node[0].wlan.mac 	"sentWithoutRetry AC 0" 	519
scalar scenarioPRJP1.node[0].wlan.mac 	"sentWithoutRetry AC 1" 	33
scalar scenarioPRJP1.node[0].wlan.mac 	"sentWithoutRetry AC 2" 	0
scalar scenarioPRJP1.node[0].wlan.mac 	"sentWithoutRetry AC 3" 	0
scalar scenarioPRJP1.node[0].wlan.mac 	"numGivenUp AC 0" 	290
scalar scenarioPRJP1.node[0].wlan.mac 	"numGivenUp AC 1" 	7
scalar scenarioPRJP1.node[0].wlan.mac 	"numGivenUp AC 2" 	0
scalar scenarioPRJP1.node[0].wlan.mac 	"numGivenUp AC 3" 	0
scalar scenarioPRJP1.node[0].wlan.mac 	"numDropped AC 0" 	0
scalar scenarioPRJP1.node[0].wlan.mac 	"numDropped AC 1" 	0
scalar scenarioPRJP1.node[0].wlan.mac 	"numDropped AC 2" 	0
scalar scenarioPRJP1.node[0].wlan.mac 	"numDropped AC 3" 	0
scalar scenarioPRJP1.node[0].wlan.mac 	rcvdPkFromLL:count 	33930
attr interpolationmode  none
attr source  packetReceivedFromLower
attr title  "packets received from lower layer, count"
scalar scenarioPRJP1.node[0].wlan.mac 	rcvdPkFromLL:sum(packetBytes) 	19932652
attr interpolationmode  none
attr source  packetReceivedFromLower
attr title  "packets received from lower layer, sum(packetBytes)"
scalar scenarioPRJP1.node[0].wlan.mac 	sentDownPk:count 	6361
attr interpolationmode  none
attr source  packetSentToLower
attr title  "packets sent to lower layer, count"
scalar scenarioPRJP1.node[0].wlan.mac 	sentDownPk:sum(packetBytes) 	3942886
attr interpolationmode  none
attr source  packetSentToLower
attr title  "packets sent to lower layer, sum(packetBytes)"
scalar scenarioPRJP1.node[0].wlan.mac 	rcvdPkFromHL:count 	3320
attr interpolationmode  none
attr source  packetReceivedFromUpper
attr title  "packets received from higher layer, count"
scalar scenarioPRJP1.node[0].wlan.mac 	rcvdPkFromHL:sum(packetBytes) 	2963784
attr interpolationmode  none
attr source  packetReceivedFromUpper
attr title  "packets received from higher layer, sum(packetBytes)"
scalar scenarioPRJP1.node[0].wlan.mac 	passedUpPk:count 	11700
attr interpolationmode  none
attr source  packetSentToUpper
attr title  "packets passed to higher layer, count"
scalar scenarioPRJP1.node[0].wlan.mac 	passedUpPk:sum(packetBytes) 	11658664
attr interpolationmode  none
attr source  packetSentToUpper
attr title  "packets passed to higher layer, sum(packetBytes)"
statistic scenarioPRJP1.node[0].wlan.radio 	radioChannel:histogram
field count 1
field mean 3
field stddev nan
field sum 3
field sqrsum 9
field min 3
field max 3
attr interpolationmode  sample-hold
attr source  radioChannelChanged
attr title  "Radio channel, histogram"
bin	-INF	0
bin	2	0
bin	3	1
bin	4	0
scalar scenarioPRJP1.node[0].wlan.radio 	transmissionState:count 	25444
attr interpolationmode  sample-hold
attr source  transmissionStateChanged
attr title  "Radio transmission state, count"
scalar scenarioPRJP1.node[0].wlan.radio 	receptionState:count 	80930
attr interpolationmode  sample-hold
attr source  receptionStateChanged
attr title  "Radio reception state, count"
scalar scenarioPRJP1.node[0].wlan.radio 	radioMode:count 	12724
attr interpolationmode  sample-hold
attr source  radioModeChanged
attr title  "Radio mode, count"
statistic scenarioPRJP1.node[0].wlan.radio 	symbolErrorRate:histogram
field count 0
field mean nan
field stddev nan
field sum 0
field sqrsum 0
field min nan
field max nan
attr source  symbolErrorRate
attr title  "Symbol error rate, histogram"
bin	-INF	0
bin	-0.5	0
bin	-0.46666666666667	0
bin	-0.43333333333333	0
bin	-0.4	0
bin	-0.36666666666667	0
bin	-0.33333333333333	0
bin	-0.3	0
bin	-0.26666666666667	0
bin	-0.23333333333333	0
bin	-0.2	0
bin	-0.16666666666667	0
bin	-0.13333333333333	0
bin	-0.1	0
bin	-0.066666666666667	0
bin	-0.033333333333333	0
bin	0	0
bin	0.033333333333333	0
bin	0.066666666666667	0
bin	0.1	0
bin	0.13333333333333	0
bin	0.16666666666667	0
bin	0.2	0
bin	0.23333333333333	0
bin	0.26666666666667	0
bin	0.3	0
bin	0.33333333333333	0
bin	0.36666666666667	0
bin	0.4	0
bin	0.43333333333333	0
bin	0.46666666666667	0
bin	0.5	0
statistic scenarioPRJP1.node[0].wlan.radio 	bitErrorRate:histogram
field count 0
field mean nan
field stddev nan
field sum 0
field sqrsum 0
field min nan
field max nan
attr source  bitErrorRate
attr title  "Bit error rate, histogram"
bin	-INF	0
bin	-0.5	0
bin	-0.46666666666667	0
bin	-0.43333333333333	0
bin	-0.4	0
bin	-0.36666666666667	0
bin	-0.33333333333333	0
bin	-0.3	0
bin	-0.26666666666667	0
bin	-0.23333333333333	0
bin	-0.2	0
bin	-0.16666666666667	0
bin	-0.13333333333333	0
bin	-0.1	0
bin	-0.066666666666667	0
bin	-0.033333333333333	0
bin	0	0
bin	0.033333333333333	0
bin	0.066666666666667	0
bin	0.1	0
bin	0.13333333333333	0
bin	0.16666666666667	0
bin	0.2	0
bin	0.23333333333333	0
bin	0.26666666666667	0
bin	0.3	0
bin	0.33333333333333	0
bin	0.36666666666667	0
bin	0.4	0
bin	0.43333333333333	0
bin	0.46666666666667	0
bin	0.5	0
statistic scenarioPRJP1.node[0].wlan.radio 	packetErrorRate:histogram
field count 33930
field mean 0.10240149146767
field stddev 0.29507285650814
field sum 3474.4826054982
field sqrsum 3309.9220555733
field min 0
field max 1
attr source  packetErrorRate
attr title  "Packet error rate, histogram"
bin	-INF	0
bin	-0.018694527110509	0
bin	-0.016201923495775	0
bin	-0.01370931988104	0
bin	-0.011216716266306	0
bin	-0.0087241126515711	0
bin	-0.0062315090368365	0
bin	-0.0037389054221019	0
bin	-0.0012463018073673	29058
bin	0.0012463018073673	243
bin	0.0037389054221019	119
bin	0.0062315090368365	85
bin	0.0087241126515711	49
bin	0.011216716266306	44
bin	0.01370931988104	25
bin	0.016201923495775	29
bin	0.018694527110509	20
bin	0.021187130725244	34
bin	0.023679734339979	34
bin	0.026172337954713	23
bin	0.028664941569448	17
bin	0.031157545184182	18
bin	0.033650148798917	14
bin	0.036142752413652	16
bin	0.038635356028386	15
bin	0.041127959643121	15
bin	0.043620563257855	13
bin	0.04611316687259	13
bin	0.048605770487325	16
bin	0.051098374102059	11
bin	0.053590977716794	5
bin	0.056083581331528	4014
statistic scenarioPRJP1.node[0].wlan.radio 	minSNIR:histogram
field count 33930
field mean 10258.711006796
field stddev 63919.286669099
field sum 348078064.46058
field sqrsum 1.4219370641306e+14
field min 0.0018239624868294
field max 753239.71923443
attr source  minSNIR
attr title  "Min SNIR, histogram"
bin	-INF	0
bin	-13152.138508942	0
bin	-11398.173608551	0
bin	-9644.2087081608	0
bin	-7890.2438077703	0
bin	-6136.2789073798	0
bin	-4382.3140069894	0
bin	-2628.3491065989	0
bin	-874.3842062084	26381
bin	879.58069418208	2512
bin	2633.5455945726	905
bin	4387.510494963	533
bin	6141.4753953535	340
bin	7895.440295744	263
bin	9649.4051961345	251
bin	11403.370096525	293
bin	13157.334996915	186
bin	14911.299897306	133
bin	16665.264797696	113
bin	18419.229698087	136
bin	20173.194598477	88
bin	21927.159498868	87
bin	23681.124399258	83
bin	25435.089299649	50
bin	27189.054200039	37
bin	28943.01910043	43
bin	30696.98400082	51
bin	32450.948901211	32
bin	34204.913801601	37
bin	35958.878701992	34
bin	37712.843602382	24
bin	39466.808502773	1318
scalar scenarioPRJP1.node[0].lo0.lo 	droppedPkBitError:count 	0
attr interpolationmode  none
attr source  dropPkBitError
attr title  "packets dropped/bit error, count"
scalar scenarioPRJP1.node[0].lo0.lo 	droppedPkBitError:sum(packetBytes) 	0
attr interpolationmode  none
attr source  dropPkBitError
attr title  "packets dropped/bit error, sum(packetBytes)"
scalar scenarioPRJP1.node[0].lo0.lo 	rcvdPkFromHL:count 	3
attr interpolationmode  none
attr source  packetReceivedFromUpper
attr title  "packets received from higher layer, count"
scalar scenarioPRJP1.node[0].lo0.lo 	rcvdPkFromHL:sum(packetBytes) 	168
attr interpolationmode  none
attr source  packetReceivedFromUpper
attr title  "packets received from higher layer, sum(packetBytes)"
scalar scenarioPRJP1.node[0].lo0.lo 	passedUpPk:count 	3
attr interpolationmode  none
attr source  packetSentToUpper
attr title  "packets passed to higher layer, count"
scalar scenarioPRJP1.node[0].lo0.lo 	passedUpPk:sum(packetBytes) 	168
attr interpolationmode  none
attr source  packetSentToUpper
attr title  "packets passed to higher layer, sum(packetBytes)"
scalar scenarioPRJP1.node[36].app 	"Total sent" 	2599
scalar scenarioPRJP1.node[36].app 	"Total received" 	172
scalar scenarioPRJP1.node[36].app 	"Total deleted" 	0
scalar scenarioPRJP1.node[36].app 	dropPk:count 	0
attr interpolationmode  none
attr source  dropPk
attr title  "packets dropped, count"
scalar scenarioPRJP1.node[36].app 	dropPk:sum(packetBytes) 	0
attr interpolationmode  none
attr source  dropPk
attr title  "packets dropped, sum(packetBytes)"
scalar scenarioPRJP1.node[36].app 	outOfOrderPk:count 	0
attr interpolationmode  none
attr source  outOfOrderPk
attr title  "packets received out of order, count"
scalar scenarioPRJP1.node[36].app 	outOfOrderPk:sum(packetBytes) 	0
attr interpolationmode  none
attr source  outOfOrderPk
attr title  "packets received out of order, sum(packetBytes)"
scalar scenarioPRJP1.node[36].app 	rcvdPk:count 	172
attr interpolationmode  none
attr source  rcvdPk
attr title  "packets received, count"
scalar scenarioPRJP1.node[36].app 	rcvdPk:sum(packetBytes) 	88064
attr interpolationmode  none
attr source  rcvdPk
attr title  "packets received, sum(packetBytes)"
statistic scenarioPRJP1.node[36].app 	endToEndDelay:histogram
field count 172
field mean 0.12310958597434
field stddev 0.37680849839522
field sum 21.174848787586
field sqrsum 26.886201070458
field min 0.000945053456
field max 2.037686830525
attr interpolationmode  none
attr source  messageAge(rcvdPk)
attr title  "delay, histogram"
attr unit  s
bin	-INF	0
bin	-1.0174258350785	0
bin	-0.88164304994057	0
bin	-0.74586026480263	0
bin	-0.6100774796647	0
bin	-0.47429469452677	0
bin	-0.33851190938883	0
bin	-0.2027291242509	0
bin	-0.066946339112967	153
bin	0.068836446024966	1
bin	0.2046192311629	2
bin	0.34040201630083	0
bin	0.47618480143877	1
bin	0.6119675865767	0
bin	0.74775037171463	3
bin	0.88353315685257	2
bin	1.0193159419905	5
bin	1.1550987271284	1
bin	1.2908815122664	0
bin	1.4266642974043	0
bin	1.5624470825422	0
bin	1.6982298676802	1
bin	1.8340126528181	0
bin	1.969795437956	3
bin	2.105578223094	0
bin	2.2413610082319	0
bin	2.3771437933698	0
bin	2.5129265785078	0
bin	2.6487093636457	0
bin	2.7844921487836	0
bin	2.9202749339216	0
bin	3.0560577190595	0
scalar scenarioPRJP1.node[36].app 	sentPk:count 	2599
attr interpolationmode  none
attr source  sentPk
attr title  "packets sent, count"
scalar scenarioPRJP1.node[36].app 	sentPk:sum(packetBytes) 	1330688
attr interpolationmode  none
attr source  sentPk
attr title  "packets sent, sum(packetBytes)"
scalar scenarioPRJP1.node[36].udp 	droppedPkBadChecksum:count 	0
attr interpolationmode  none
attr title  "packets dropped (checksum error), count"
scalar scenarioPRJP1.node[36].udp 	droppedPkWrongPort:count 	0
attr interpolationmode  none
attr title  "packets dropped (wrong port), count"
scalar scenarioPRJP1.node[36].udp 	passedUpPk:count 	172
attr interpolationmode  none
attr title  "packets passed up, count"
scalar scenarioPRJP1.node[36].udp 	rcvdPk:count 	172
attr interpolationmode  none
attr source  rcvdPk
attr title  "packets received, count"
scalar scenarioPRJP1.node[36].udp 	rcvdPk:sum(packetBytes) 	89440
attr interpolationmode  none
attr source  rcvdPk
attr title  "packets received, sum(packetBytes)"
scalar scenarioPRJP1.node[36].udp 	sentPk:count 	2599
attr interpolationmode  none
attr source  sentPk
attr title  "packets sent, count"
scalar scenarioPRJP1.node[36].udp 	sentPk:sum(packetBytes) 	1351480
attr interpolationmode  none
attr source  sentPk
attr title  "packets sent, sum(packetBytes)"
scalar scenarioPRJP1.node[36].networkLayer.arp 	failedARPResolution:count 	7
attr title  "ARP failed resolutions, count"
scalar scenarioPRJP1.node[36].networkLayer.arp 	completedARPResolution:count 	399
attr title  "ARP completed resolutions, count"
scalar scenarioPRJP1.node[36].networkLayer.arp 	initiatedARPResolution:count 	71
attr title  "ARP initiated resolutions, count"
scalar scenarioPRJP1.node[36].networkLayer.arp 	sentReply:count 	43
attr title  "ARP replies sent, count"
scalar scenarioPRJP1.node[36].networkLayer.arp 	sentReq:count 	105
attr title  "ARP request sent, count"
scalar scenarioPRJP1.node[36].mobility 	startTime 	2.6
scalar scenarioPRJP1.node[36].mobility 	totalTime 	947.4
scalar scenarioPRJP1.node[36].mobility 	stopTime 	950
scalar scenarioPRJP1.node[36].mobility 	minSpeed 	2.4755825180643e-13
scalar scenarioPRJP1.node[36].mobility 	maxSpeed 	16.062685741572
scalar scenarioPRJP1.node[36].mobility 	totalDistance 	8416.523186341
scalar scenarioPRJP1.node[36].mobility 	totalCO2Emission 	2277.9883122782
scalar scenarioPRJP1.node[36].wlan.mgmt 	dataQueueLen:max 	0
attr interpolationmode  sample-hold
attr title  "data queue length, max"
scalar scenarioPRJP1.node[36].wlan.mgmt 	dataQueueLen:timeavg 	0
attr interpolationmode  sample-hold
attr title  "data queue length, timeavg"
scalar scenarioPRJP1.node[36].wlan.mgmt 	dropPkByQueue:count 	0
attr interpolationmode  none
attr source  dropPkByQueue
attr title  "packets dropped by queue, count"
scalar scenarioPRJP1.node[36].wlan.mgmt 	dropPkByQueue:sum(packetBytes) 	0
attr interpolationmode  none
attr source  dropPkByQueue
attr title  "packets dropped by queue, sum(packetBytes)"
scalar scenarioPRJP1.node[36].wlan.mac 	"number of received packets" 	1585
scalar scenarioPRJP1.node[36].wlan.mac 	"number of collisions" 	5091
scalar scenarioPRJP1.node[36].wlan.mac 	"number of internal collisions" 	1
scalar scenarioPRJP1.node[36].wlan.mac 	"number of retry for AC 0" 	2152
scalar scenarioPRJP1.node[36].wlan.mac 	"number of retry for AC 1" 	44
scalar scenarioPRJP1.node[36].wlan.mac 	"number of retry for AC 2" 	0
scalar scenarioPRJP1.node[36].wlan.mac 	"number of retry for AC 3" 	0
scalar scenarioPRJP1.node[36].wlan.mac 	"sent and received bits" 	27437088
scalar scenarioPRJP1.node[36].wlan.mac 	"sent packet within AC 0" 	807
scalar scenarioPRJP1.node[36].wlan.mac 	"sent packet within AC 1" 	65
scalar scenarioPRJP1.node[36].wlan.mac 	"sent packet within AC 2" 	0
scalar scenarioPRJP1.node[36].wlan.mac 	"sent packet within AC 3" 	0
scalar scenarioPRJP1.node[36].wlan.mac 	"sent in TXOP " 	0
scalar scenarioPRJP1.node[36].wlan.mac 	"sentWithoutRetry AC 0" 	753
scalar scenarioPRJP1.node[36].wlan.mac 	"sentWithoutRetry AC 1" 	63
scalar scenarioPRJP1.node[36].wlan.mac 	"sentWithoutRetry AC 2" 	0
scalar scenarioPRJP1.node[36].wlan.mac 	"sentWithoutRetry AC 3" 	0
scalar scenarioPRJP1.node[36].wlan.mac 	"numGivenUp AC 0" 	339
scalar scenarioPRJP1.node[36].wlan.mac 	"numGivenUp AC 1" 	7
scalar scenarioPRJP1.node[36].wlan.mac 	"numGivenUp AC 2" 	0
scalar scenarioPRJP1.node[36].wlan.mac 	"numGivenUp AC 3" 	0
scalar scenarioPRJP1.node[36].wlan.mac 	"numDropped AC 0" 	0
scalar scenarioPRJP1.node[36].wlan.mac 	"numDropped AC 1" 	0
scalar scenarioPRJP1.node[36].wlan.mac 	"numDropped AC 2" 	0
scalar scenarioPRJP1.node[36].wlan.mac 	"numDropped AC 3" 	0
scalar scenarioPRJP1.node[36].wlan.mac 	rcvdPkFromLL:count 	40917
attr interpolationmode  none
attr source  packetReceivedFromLower
attr title  "packets received from lower layer, count"
scalar scenarioPRJP1.node[36].wlan.mac 	rcvdPkFromLL:sum(packetBytes) 	23920424
attr interpolationmode  none
attr source  packetReceivedFromLower
attr title  "packets received from lower layer, sum(packetBytes)"
scalar scenarioPRJP1.node[36].wlan.mac 	sentDownPk:count 	7915
attr interpolationmode  none
attr source  packetSentToLower
attr title  "packets sent to lower layer, count"
scalar scenarioPRJP1.node[36].wlan.mac 	sentDownPk:sum(packetBytes) 	4809862
attr interpolationmode  none
attr source  packetSentToLower
attr title  "packets sent to lower layer, sum(packetBytes)"
scalar scenarioPRJP1.node[36].wlan.mac 	rcvdPkFromHL:count 	4135
attr interpolationmode  none
attr source  packetReceivedFromUpper
attr title  "packets received from higher layer, count"
scalar scenarioPRJP1.node[36].wlan.mac 	rcvdPkFromHL:sum(packetBytes) 	3614792
attr interpolationmode  none
attr source  packetReceivedFromUpper
attr title  "packets received from higher layer, sum(packetBytes)"
scalar scenarioPRJP1.node[36].wlan.mac 	passedUpPk:count 	14179
attr interpolationmode  none
attr source  packetSentToUpper
attr title  "packets passed to higher layer, count"
scalar scenarioPRJP1.node[36].wlan.mac 	passedUpPk:sum(packetBytes) 	14010192
attr interpolationmode  none
attr source  packetSentToUpper
attr title  "packets passed to higher layer, sum(packetBytes)"
statistic scenarioPRJP1.node[36].wlan.radio 	radioChannel:histogram
field count 1
field mean 3
field stddev nan
field sum 3
field sqrsum 9
field min 3
field max 3
attr interpolationmode  sample-hold
attr source  radioChannelChanged
attr title  "Radio channel, histogram"
bin	-INF	0
bin	2	0
bin	3	1
bin	4	0
scalar scenarioPRJP1.node[36].wlan.radio 	transmissionState:count 	31660
attr interpolationmode  sample-hold
attr source  transmissionStateChanged
attr title  "Radio transmission state, count"
scalar scenarioPRJP1.node[36].wlan.radio 	receptionState:count 	98329
attr interpolationmode  sample-hold
attr source  receptionStateChanged
attr title  "Radio reception state, count"
scalar scenarioPRJP1.node[36].wlan.radio 	radioMode:count 	15832
attr interpolationmode  sample-hold
attr source  radioModeChanged
attr title  "Radio mode, count"
statistic scenarioPRJP1.node[36].wlan.radio 	symbolErrorRate:histogram
field count 0
field mean nan
field stddev nan
field sum 0
field sqrsum 0
field min nan
field max nan
attr source  symbolErrorRate
attr title  "Symbol error rate, histogram"
bin	-INF	0
bin	-0.5	0
bin	-0.46666666666667	0
bin	-0.43333333333333	0
bin	-0.4	0
bin	-0.36666666666667	0
bin	-0.33333333333333	0
bin	-0.3	0
bin	-0.26666666666667	0
bin	-0.23333333333333	0
bin	-0.2	0
bin	-0.16666666666667	0
bin	-0.13333333333333	0
bin	-0.1	0
bin	-0.066666666666667	0
bin	-0.033333333333333	0
bin	0	0
bin	0.033333333333333	0
bin	0.066666666666667	0
bin	0.1	0
bin	0.13333333333333	0
bin	0.16666666666667	0
bin	0.2	0
bin	0.23333333333333	0
bin	0.26666666666667	0
bin	0.3	0
bin	0.33333333333333	0
bin	0.36666666666667	0
bin	0.4	0
bin	0.43333333333333	0
bin	0.46666666666667	0
bin	0.5	0
statistic scenarioPRJP1.node[36].wlan.radio 	bitErrorRate:histogram
field count 0
field mean nan
field stddev nan
field sum 0
field sqrsum 0
field min nan
field max nan
attr source  bitErrorRate
attr title  "Bit error rate, histogram"
bin	-INF	0
bin	-0.5	0
bin	-0.46666666666667	0
bin	-0.43333333333333	0
bin	-0.4	0
bin	-0.36666666666667	0
bin	-0.33333333333333	0
bin	-0.3	0
bin	-0.26666666666667	0
bin	-0.23333333333333	0
bin	-0.2	0
bin	-0.16666666666667	0
bin	-0.13333333333333	0
bin	-0.1	0
bin	-0.066666666666667	0
bin	-0.033333333333333	0
bin	0	0
bin	0.033333333333333	0
bin	0.066666666666667	0
bin	0.1	0
bin	0.13333333333333	0
bin	0.16666666666667	0
bin	0.2	0
bin	0.23333333333333	0
bin	0.26666666666667	0
bin	0.3	0
bin	0.33333333333333	0
bin	0.36666666666667	0
bin	0.4	0
bin	0.43333333333333	0
bin	0.46666666666667	0
bin	0.5	0
statistic scenarioPRJP1.node[36].wlan.radio 	packetErrorRate:histogram
field count 40917
field mean 0.1177606490122
field stddev 0.31474712691803
field sum 4818.4124756324
field sqrsum 4620.7937670405
field min 0
field max 1
attr source  packetErrorRate
attr title  "Packet error rate, histogram"
bin	-INF	0
bin	-0.5	0
bin	-0.43333333333333	0
bin	-0.36666666666667	0
bin	-0.3	0
bin	-0.23333333333333	0
bin	-0.16666666666667	0
bin	-0.1	0
bin	-0.033333333333333	35269
bin	0.033333333333333	354
bin	0.1	156
bin	0.16666666666667	107
bin	0.23333333333333	86
bin	0.3	80
bin	0.36666666666667	65
bin	0.43333333333333	51
bin	0.5	53
bin	0.56666666666667	45
bin	0.63333333333333	66
bin	0.7	47
bin	0.76666666666667	44
bin	0.83333333333333	72
bin	0.9	100
bin	0.96666666666667	4322
bin	1.0333333333333	0
bin	1.1	0
bin	1.1666666666667	0
bin	1.2333333333333	0
bin	1.3	0
bin	1.3666666666667	0
bin	1.4333333333333	0
bin	1.5	0
statistic scenarioPRJP1.node[36].wlan.radio 	minSNIR:histogram
field count 40917
field mean 7850.5183730888
field stddev 55284.119646103
field sum 321219660.27168
field sqrsum 1.2757469808525e+14
field min 0.00016821902700569
field max 753239.71923443
attr source  minSNIR
attr title  "Min SNIR, histogram"
bin	-INF	0
bin	-13026.368885517	0
bin	-11289.507643236	0
bin	-9552.6464009556	0
bin	-7815.7851586749	0
bin	-6078.9239163942	0
bin	-4342.0626741135	0
bin	-2605.2014318328	0
bin	-868.34018955207	33011
bin	868.52105272863	2788
bin	2605.3822950093	1044
bin	4342.24353729	661
bin	6079.1047795707	336
bin	7815.9660218514	287
bin	9552.8272641321	197
bin	11289.688506413	216
bin	13026.549748694	109
bin	14763.410990974	144
bin	16500.272233255	102
bin	18237.133475536	155
bin	19973.994717816	176
bin	21710.855960097	131
bin	23447.717202378	71
bin	25184.578444658	86
bin	26921.439686939	36
bin	28658.30092922	22
bin	30395.162171501	36
bin	32132.023413781	30
bin	33868.884656062	36
bin	35605.745898343	43
bin	37342.607140623	45
bin	39079.468382904	1155
scalar scenarioPRJP1.node[36].lo0.lo 	droppedPkBitError:count 	0
attr interpolationmode  none
attr source  dropPkBitError
attr title  "packets dropped/bit error, count"
scalar scenarioPRJP1.node[36].lo0.lo 	droppedPkBitError:sum(packetBytes) 	0
attr interpolationmode  none
attr source  dropPkBitError
attr title  "packets dropped/bit error, sum(packetBytes)"
scalar scenarioPRJP1.node[36].lo0.lo 	rcvdPkFromHL:count 	5
attr interpolationmode  none
attr source  packetReceivedFromUpper
attr title  "packets received from higher layer, count"
scalar scenarioPRJP1.node[36].lo0.lo 	rcvdPkFromHL:sum(packetBytes) 	280
attr interpolationmode  none
attr source  packetReceivedFromUpper
attr title  "packets received from higher layer, sum(packetBytes)"
scalar scenarioPRJP1.node[36].lo0.lo 	passedUpPk:count 	5
attr interpolationmode  none
attr source  packetSentToUpper
attr title  "packets passed to higher layer, count"
scalar scenarioPRJP1.node[36].lo0.lo 	passedUpPk:sum(packetBytes) 	280
attr interpolationmode  none
attr source  packetSentToUpper
attr title  "packets passed to higher layer, sum(packetBytes)"
scalar scenarioPRJP1.node[54].app 	"Total sent" 	2610
scalar scenarioPRJP1.node[54].app 	"Total received" 	159
scalar scenarioPRJP1.node[54].app 	"Total deleted" 	0
scalar scenarioPRJP1.node[54].app 	dropPk:count 	0
attr interpolationmode  none
attr source  dropPk
attr title  "packets dropped, count"
scalar scenarioPRJP1.node[54].app 	dropPk:sum(packetBytes) 	0
attr interpolationmode  none
attr source  dropPk
attr title  "packets dropped, sum(packetBytes)"
scalar scenarioPRJP1.node[54].app 	outOfOrderPk:count 	0
attr interpolationmode  none
attr source  outOfOrderPk
attr title  "packets received out of order, count"
scalar scenarioPRJP1.node[54].app 	outOfOrderPk:sum(packetBytes) 	0
attr interpolationmode  none
attr source  outOfOrderPk
attr title  "packets received out of order, sum(packetBytes)"
scalar scenarioPRJP1.node[54].app 	rcvdPk:count 	159
attr interpolationmode  none
attr source  rcvdPk
attr title  "packets received, count"
scalar scenarioPRJP1.node[54].app 	rcvdPk:sum(packetBytes) 	81408
attr interpolationmode  none
attr source  rcvdPk
attr title  "packets received, sum(packetBytes)"
statistic scenarioPRJP1.node[54].app 	endToEndDelay:histogram
field count 159
field mean 0.042140799339629
field stddev 0.20355252771929
field sum 6.700387095001
field sqrsum 6.8288734515323
field min 0.00094504835
field max 2.01670768861
attr interpolationmode  none
attr source  messageAge(rcvdPk)
attr title  "delay, histogram"
attr unit  s
bin	-INF	0
bin	-1.00693627178	0
bin	-0.87255209576267	0
bin	-0.73816791974533	0
bin	-0.603783743728	0
bin	-0.46939956771067	0
bin	-0.33501539169333	0
bin	-0.200631215676	0
bin	-0.066247039658666	152
bin	0.068137136358667	2
bin	0.202521312376	0
bin	0.33690548839333	0
bin	0.47128966441067	1
bin	0.605673840428	1
bin	0.74005801644533	0
bin	0.87444219246267	2
bin	1.00882636848	0
bin	1.1432105444973	0
bin	1.2775947205147	0
bin	1.411978896532	0
bin	1.5463630725493	0
bin	1.6807472485667	0
bin	1.815131424584	0
bin	1.9495156006013	1
bin	2.0838997766187	0
bin	2.218283952636	0
bin	2.3526681286533	0
bin	2.4870523046707	0
bin	2.621436480688	0
bin	2.7558206567053	0
bin	2.8902048327227	0
bin	3.02458900874	0
scalar scenarioPRJP1.node[54].app 	sentPk:count 	2610
attr interpolationmode  none
attr source  sentPk
attr title  "packets sent, count"
scalar scenarioPRJP1.node[54].app 	sentPk:sum(packetBytes) 	1336320
attr interpolationmode  none
attr source  sentPk
attr title  "packets sent, sum(packetBytes)"
scalar scenarioPRJP1.node[54].udp 	droppedPkBadChecksum:count 	0
attr interpolationmode  none
attr title  "packets dropped (checksum error), count"
scalar scenarioPRJP1.node[54].udp 	droppedPkWrongPort:count 	0
attr interpolationmode  none
attr title  "packets dropped (wrong port), count"
scalar scenarioPRJP1.node[54].udp 	passedUpPk:count 	159
attr interpolationmode  none
attr title  "packets passed up, count"
scalar scenarioPRJP1.node[54].udp 	rcvdPk:count 	159
attr interpolationmode  none
attr source  rcvdPk
attr title  "packets received, count"
scalar scenarioPRJP1.node[54].udp 	rcvdPk:sum(packetBytes) 	82680
attr interpolationmode  none
attr source  rcvdPk
attr title  "packets received, sum(packetBytes)"
scalar scenarioPRJP1.node[54].udp 	sentPk:count 	2610
attr interpolationmode  none
attr source  sentPk
attr title  "packets sent, count"
scalar scenarioPRJP1.node[54].udp 	sentPk:sum(packetBytes) 	1357200
attr interpolationmode  none
attr source  sentPk
attr title  "packets sent, sum(packetBytes)"
scalar scenarioPRJP1.node[54].networkLayer.arp 	failedARPResolution:count 	9
attr title  "ARP failed resolutions, count"
scalar scenarioPRJP1.node[54].networkLayer.arp 	completedARPResolution:count 	323
attr title  "ARP completed resolutions, count"
scalar scenarioPRJP1.node[54].networkLayer.arp 	initiatedARPResolution:count 	62
attr title  "ARP initiated resolutions, count"
scalar scenarioPRJP1.node[54].networkLayer.arp 	sentReply:count 	33
attr title  "ARP replies sent, count"
scalar scenarioPRJP1.node[54].networkLayer.arp 	sentReq:count 	93
attr title  "ARP request sent, count"
scalar scenarioPRJP1.node[54].mobility 	startTime 	5
scalar scenarioPRJP1.node[54].mobility 	totalTime 	945
scalar scenarioPRJP1.node[54].mobility 	stopTime 	950
scalar scenarioPRJP1.node[54].mobility 	minSpeed 	2.4754483545978e-13
scalar scenarioPRJP1.node[54].mobility 	maxSpeed 	18.230040401131
scalar scenarioPRJP1.node[54].mobility 	totalDistance 	8997.4547617634
scalar scenarioPRJP1.node[54].mobility 	totalCO2Emission 	2502.3463773948
scalar scenarioPRJP1.node[54].wlan.mgmt 	dataQueueLen:max 	2
attr interpolationmode  sample-hold
attr title  "data queue length, max"
scalar scenarioPRJP1.node[54].wlan.mgmt 	dataQueueLen:timeavg 	0
attr interpolationmode  sample-hold
attr title  "data queue length, timeavg"
scalar scenarioPRJP1.node[54].wlan.mgmt 	dropPkByQueue:count 	0
attr interpolationmode  none
attr source  dropPkByQueue
attr title  "packets dropped by queue, count"
scalar scenarioPRJP1.node[54].wlan.mgmt 	dropPkByQueue:sum(packetBytes) 	0
attr interpolationmode  none
attr source  dropPkByQueue
attr title  "packets dropped by queue, sum(packetBytes)"
scalar scenarioPRJP1.node[54].wlan.mac 	"number of received packets" 	1286
scalar scenarioPRJP1.node[54].wlan.mac 	"number of collisions" 	3454
scalar scenarioPRJP1.node[54].wlan.mac 	"number of internal collisions" 	1
scalar scenarioPRJP1.node[54].wlan.mac 	"number of retry for AC 0" 	1803
scalar scenarioPRJP1.node[54].wlan.mac 	"number of retry for AC 1" 	25
scalar scenarioPRJP1.node[54].wlan.mac 	"number of retry for AC 2" 	0
scalar scenarioPRJP1.node[54].wlan.mac 	"number of retry for AC 3" 	0
scalar scenarioPRJP1.node[54].wlan.mac 	"sent and received bits" 	21384384
scalar scenarioPRJP1.node[54].wlan.mac 	"sent packet within AC 0" 	531
scalar scenarioPRJP1.node[54].wlan.mac 	"sent packet within AC 1" 	25
scalar scenarioPRJP1.node[54].wlan.mac 	"sent packet within AC 2" 	0
scalar scenarioPRJP1.node[54].wlan.mac 	"sent packet within AC 3" 	0
scalar scenarioPRJP1.node[54].wlan.mac 	"sent in TXOP " 	0
scalar scenarioPRJP1.node[54].wlan.mac 	"sentWithoutRetry AC 0" 	501
scalar scenarioPRJP1.node[54].wlan.mac 	"sentWithoutRetry AC 1" 	24
scalar scenarioPRJP1.node[54].wlan.mac 	"sentWithoutRetry AC 2" 	0
scalar scenarioPRJP1.node[54].wlan.mac 	"sentWithoutRetry AC 3" 	0
scalar scenarioPRJP1.node[54].wlan.mac 	"numGivenUp AC 0" 	290
scalar scenarioPRJP1.node[54].wlan.mac 	"numGivenUp AC 1" 	4
scalar scenarioPRJP1.node[54].wlan.mac 	"numGivenUp AC 2" 	0
scalar scenarioPRJP1.node[54].wlan.mac 	"numGivenUp AC 3" 	0
scalar scenarioPRJP1.node[54].wlan.mac 	"numDropped AC 0" 	0
scalar scenarioPRJP1.node[54].wlan.mac 	"numDropped AC 1" 	0
scalar scenarioPRJP1.node[54].wlan.mac 	"numDropped AC 2" 	0
scalar scenarioPRJP1.node[54].wlan.mac 	"numDropped AC 3" 	0
scalar scenarioPRJP1.node[54].wlan.mac 	rcvdPkFromLL:count 	34337
attr interpolationmode  none
attr source  packetReceivedFromLower
attr title  "packets received from lower layer, count"
scalar scenarioPRJP1.node[54].wlan.mac 	rcvdPkFromLL:sum(packetBytes) 	19613182
attr interpolationmode  none
attr source  packetReceivedFromLower
attr title  "packets received from lower layer, sum(packetBytes)"
scalar scenarioPRJP1.node[54].wlan.mac 	sentDownPk:count 	6291
attr interpolationmode  none
attr source  packetSentToLower
attr title  "packets sent to lower layer, count"
scalar scenarioPRJP1.node[54].wlan.mac 	sentDownPk:sum(packetBytes) 	3823960
attr interpolationmode  none
attr source  packetSentToLower
attr title  "packets sent to lower layer, sum(packetBytes)"
scalar scenarioPRJP1.node[54].wlan.mac 	rcvdPkFromHL:count 	3178
attr interpolationmode  none
attr source  packetReceivedFromUpper
attr title  "packets received from higher layer, count"
scalar scenarioPRJP1.node[54].wlan.mac 	rcvdPkFromHL:sum(packetBytes) 	2830216
attr interpolationmode  none
attr source  packetReceivedFromUpper
attr title  "packets received from higher layer, sum(packetBytes)"
scalar scenarioPRJP1.node[54].wlan.mac 	passedUpPk:count 	11598
attr interpolationmode  none
attr source  packetSentToUpper
attr title  "packets passed to higher layer, count"
scalar scenarioPRJP1.node[54].wlan.mac 	passedUpPk:sum(packetBytes) 	11561332
attr interpolationmode  none
attr source  packetSentToUpper
attr title  "packets passed to higher layer, sum(packetBytes)"
statistic scenarioPRJP1.node[54].wlan.radio 	radioChannel:histogram
field count 1
field mean 3
field stddev nan
field sum 3
field sqrsum 9
field min 3
field max 3
attr interpolationmode  sample-hold
attr source  radioChannelChanged
attr title  "Radio channel, histogram"
bin	-INF	0
bin	2	0
bin	3	1
bin	4	0
scalar scenarioPRJP1.node[54].wlan.radio 	transmissionState:count 	25164
attr interpolationmode  sample-hold
attr source  transmissionStateChanged
attr title  "Radio transmission state, count"
scalar scenarioPRJP1.node[54].wlan.radio 	receptionState:count 	81607
attr interpolationmode  sample-hold
attr source  receptionStateChanged
attr title  "Radio reception state, count"
scalar scenarioPRJP1.node[54].wlan.radio 	radioMode:count 	12584
attr interpolationmode  sample-hold
attr source  radioModeChanged
attr title  "Radio mode, count"
statistic scenarioPRJP1.node[54].wlan.radio 	symbolErrorRate:histogram
field count 0
field mean nan
field stddev nan
field sum 0
field sqrsum 0
field min nan
field max nan
attr source  symbolErrorRate
attr title  "Symbol error rate, histogram"
bin	-INF	0
bin	-0.5	0
bin	-0.46666666666667	0
bin	-0.43333333333333	0
bin	-0.4	0
bin	-0.36666666666667	0
bin	-0.33333333333333	0
bin	-0.3	0
bin	-0.26666666666667	0
bin	-0.23333333333333	0
bin	-0.2	0
bin	-0.16666666666667	0
bin	-0.13333333333333	0
bin	-0.1	0
bin	-0.066666666666667	0
bin	-0.033333333333333	0
bin	0	0
bin	0.033333333333333	0
bin	0.066666666666667	0
bin	0.1	0
bin	0.13333333333333	0
bin	0.16666666666667	0
bin	0.2	0
bin	0.23333333333333	0
bin	0.26666666666667	0
bin	0.3	0
bin	0.33333333333333	0
bin	0.36666666666667	0
bin	0.4	0
bin	0.43333333333333	0
bin	0.46666666666667	0
bin	0.5	0
statistic scenarioPRJP1.node[54].wlan.radio 	bitErrorRate:histogram
field count 0
field mean nan
field stddev nan
field sum 0
field sqrsum 0
field min nan
field max nan
attr source  bitErrorRate
attr title  "Bit error rate, histogram"
bin	-INF	0
bin	-0.5	0
bin	-0.46666666666667	0
bin	-0.43333333333333	0
bin	-0.4	0
bin	-0.36666666666667	0
bin	-0.33333333333333	0
bin	-0.3	0
bin	-0.26666666666667	0
bin	-0.23333333333333	0
bin	-0.2	0
bin	-0.16666666666667	0
bin	-0.13333333333333	0
bin	-0.1	0
bin	-0.066666666666667	0
bin	-0.033333333333333	0
bin	0	0
bin	0.033333333333333	0
bin	0.066666666666667	0
bin	0.1	0
bin	0.13333333333333	0
bin	0.16666666666667	0
bin	0.2	0
bin	0.23333333333333	0
bin	0.26666666666667	0
bin	0.3	0
bin	0.33333333333333	0
bin	0.36666666666667	0
bin	0.4	0
bin	0.43333333333333	0
bin	0.46666666666667	0
bin	0.5	0
statistic scenarioPRJP1.node[54].wlan.radio 	packetErrorRate:histogram
field count 34337
field mean 0.095300078681515
field stddev 0.28524070980771
field sum 3272.3188016872
field sqrsum 3105.5068855571
field min 0
field max 1
attr source  packetErrorRate
attr title  "Packet error rate, histogram"
bin	-INF	0
bin	-0.5	0
bin	-0.46666666666667	0
bin	-0.43333333333333	0
bin	-0.4	0
bin	-0.36666666666667	0
bin	-0.33333333333333	0
bin	-0.3	0
bin	-0.26666666666667	0
bin	-0.23333333333333	0
bin	-0.2	0
bin	-0.16666666666667	0
bin	-0.13333333333333	0
bin	-0.1	0
bin	-0.066666666666667	0
bin	-0.033333333333333	0
bin	0	30380
bin	0.033333333333333	163
bin	0.066666666666667	100
bin	0.1	74
bin	0.13333333333333	71
bin	0.16666666666667	53
bin	0.2	49
bin	0.23333333333333	38
bin	0.26666666666667	24
bin	0.3	40
bin	0.33333333333333	39
bin	0.36666666666667	21
bin	0.4	21
bin	0.43333333333333	26
bin	0.46666666666667	23
bin	0.5	3215
statistic scenarioPRJP1.node[54].wlan.radio 	minSNIR:histogram
field count 34337
field mean 12443.61780907
field stddev 76694.287460031
field sum 427276504.71005
field sqrsum 2.0728168892242e+14
field min 0.00021405275050061
field max 753239.71923443
attr source  minSNIR
attr title  "Min SNIR, histogram"
bin	-INF	0
bin	-13503.25000692	0
bin	-11701.279478101	0
bin	-9899.3089492825	0
bin	-8097.3384204637	0
bin	-6295.3678916449	0
bin	-4493.397362826	0
bin	-2691.4268340072	0
bin	-889.4563051884	26483
bin	912.51422363043	2626
bin	2714.4847524492	871
bin	4516.4552812681	433
bin	6318.4258100869	381
bin	8120.3963389057	242
bin	9922.3668677245	372
bin	11724.337396543	275
bin	13526.307925362	142
bin	15328.278454181	141
bin	17130.248983	92
bin	18932.219511819	133
bin	20734.190040637	181
bin	22536.160569456	145
bin	24338.131098275	106
bin	26140.101627094	87
bin	27942.072155913	39
bin	29744.042684732	49
bin	31546.01321355	62
bin	33347.983742369	39
bin	35149.954271188	27
bin	36951.924800007	44
bin	38753.895328826	54
bin	40555.865857645	1313
scalar scenarioPRJP1.node[54].lo0.lo 	droppedPkBitError:count 	0
attr interpolationmode  none
attr source  dropPkBitError
attr title  "packets dropped/bit error, count"
scalar scenarioPRJP1.node[54].lo0.lo 	droppedPkBitError:sum(packetBytes) 	0
attr interpolationmode  none
attr source  dropPkBitError
attr title  "packets dropped/bit error, sum(packetBytes)"
scalar scenarioPRJP1.node[54].lo0.lo 	rcvdPkFromHL:count 	8
attr interpolationmode  none
attr source  packetReceivedFromUpper
attr title  "packets received from higher layer, count"
scalar scenarioPRJP1.node[54].lo0.lo 	rcvdPkFromHL:sum(packetBytes) 	448
attr interpolationmode  none
attr source  packetReceivedFromUpper
attr title  "packets received from higher layer, sum(packetBytes)"
scalar scenarioPRJP1.node[54].lo0.lo 	passedUpPk:count 	8
attr interpolationmode  none
attr source  packetSentToUpper
attr title  "packets passed to higher layer, count"
scalar scenarioPRJP1.node[54].lo0.lo 	passedUpPk:sum(packetBytes) 	448
attr interpolationmode  none
attr source  packetSentToUpper
attr title  "packets passed to higher layer, sum(packetBytes)"
scalar scenarioPRJP1.node[71].app 	"Total sent" 	2608
scalar scenarioPRJP1.node[71].app 	"Total received" 	162
scalar scenarioPRJP1.node[71].app 	"Total deleted" 	0
scalar scenarioPRJP1.node[71].app 	dropPk:count 	0
attr interpolationmode  none
attr source  dropPk
attr title  "packets dropped, count"
scalar scenarioPRJP1.node[71].app 	dropPk:sum(packetBytes) 	0
attr interpolationmode  none
attr source  dropPk
attr title  "packets dropped, sum(packetBytes)"
scalar scenarioPRJP1.node[71].app 	outOfOrderPk:count 	0
attr interpolationmode  none
attr source  outOfOrderPk
attr title  "packets received out of order, count"
scalar scenarioPRJP1.node[71].app 	outOfOrderPk:sum(packetBytes) 	0
attr interpolationmode  none
attr source  outOfOrderPk
attr title  "packets received out of order, sum(packetBytes)"
scalar scenarioPRJP1.node[71].app 	rcvdPk:count 	162
attr interpolationmode  none
attr source  rcvdPk
attr title  "packets received, count"
scalar scenarioPRJP1.node[71].app 	rcvdPk:sum(packetBytes) 	82944
attr interpolationmode  none
attr source  rcvdPk
attr title  "packets received, sum(packetBytes)"
statistic scenarioPRJP1.node[71].app 	endToEndDelay:histogram
field count 162
field mean 0.10046451033235
field stddev 0.29157162777966
field sum 16.275250673841
field sqrsum 15.322341363782
field min 0.000945022685
field max 2.001919465773
attr interpolationmode  none
attr source  messageAge(rcvdPk)
attr title  "delay, histogram"
attr unit  s
bin	-INF	0
bin	-0.5257512061465	0
bin	-0.4555250423023	0
bin	-0.3852988784581	0
bin	-0.3150727146139	0
bin	-0.2448465507697	0
bin	-0.1746203869255	0
bin	-0.1043942230813	0
bin	-0.0341680592371	133
bin	0.0360581046071	11
bin	0.1062842684513	1
bin	0.1765104322955	0
bin	0.2467365961397	3
bin	0.3169627599839	0
bin	0.3871889238281	0
bin	0.4574150876723	1
bin	0.5276412515165	0
bin	0.5978674153607	0
bin	0.6680935792049	0
bin	0.7383197430491	3
bin	0.8085459068933	1
bin	0.8787720707375	0
bin	0.9489982345817	6
bin	1.0192243984259	2
bin	1.0894505622701	0
bin	1.1596767261143	0
bin	1.2299028899585	0
bin	1.3001290538027	0
bin	1.3703552176469	0
bin	1.4405813814911	0
bin	1.5108075453353	0
bin	1.5810337091795	1
scalar scenarioPRJP1.node[71].app 	sentPk:count 	2608
attr interpolationmode  none
attr source  sentPk
attr title  "packets sent, count"
scalar scenarioPRJP1.node[71].app 	sentPk:sum(packetBytes) 	1335296
attr interpolationmode  none
attr source  sentPk
attr title  "packets sent, sum(packetBytes)"
scalar scenarioPRJP1.node[71].udp 	droppedPkBadChecksum:count 	0
attr interpolationmode  none
attr title  "packets dropped (checksum error), count"
scalar scenarioPRJP1.node[71].udp 	droppedPkWrongPort:count 	0
attr interpolationmode  none
attr title  "packets dropped (wrong port), count"
scalar scenarioPRJP1.node[71].udp 	passedUpPk:count 	162
attr interpolationmode  none
attr title  "packets passed up, count"
scalar scenarioPRJP1.node[71].udp 	rcvdPk:count 	162
attr interpolationmode  none
attr source  rcvdPk
attr title  "packets received, count"
scalar scenarioPRJP1.node[71].udp 	rcvdPk:sum(packetBytes) 	84240
attr interpolationmode  none
attr source  rcvdPk
attr title  "packets received, sum(packetBytes)"
scalar scenarioPRJP1.node[71].udp 	sentPk:count 	2608
attr interpolationmode  none
attr source  sentPk
attr title  "packets sent, count"
scalar scenarioPRJP1.node[71].udp 	sentPk:sum(packetBytes) 	1356160
attr interpolationmode  none
attr source  sentPk
attr title  "packets sent, sum(packetBytes)"
scalar scenarioPRJP1.node[71].networkLayer.arp 	failedARPResolution:count 	7
attr title  "ARP failed resolutions, count"
scalar scenarioPRJP1.node[71].networkLayer.arp 	completedARPResolution:count 	378
attr title  "ARP completed resolutions, count"
scalar scenarioPRJP1.node[71].networkLayer.arp 	initiatedARPResolution:count 	66
attr title  "ARP initiated resolutions, count"
scalar scenarioPRJP1.node[71].networkLayer.arp 	sentReply:count 	47
attr title  "ARP replies sent, count"
scalar scenarioPRJP1.node[71].networkLayer.arp 	sentReq:count 	93
attr title  "ARP request sent, count"
scalar scenarioPRJP1.node[71].mobility 	startTime 	7.4
scalar scenarioPRJP1.node[71].mobility 	totalTime 	942.6
scalar scenarioPRJP1.node[71].mobility 	stopTime 	950
scalar scenarioPRJP1.node[71].mobility 	minSpeed 	2.4755292553179e-13
scalar scenarioPRJP1.node[71].mobility 	maxSpeed 	16.00469743095
scalar scenarioPRJP1.node[71].mobility 	totalDistance 	9292.8345930689
scalar scenarioPRJP1.node[71].mobility 	totalCO2Emission 	2249.8340526743
scalar scenarioPRJP1.node[71].wlan.mgmt 	dataQueueLen:max 	1
attr interpolationmode  sample-hold
attr title  "data queue length, max"
scalar scenarioPRJP1.node[71].wlan.mgmt 	dataQueueLen:timeavg 	0
attr interpolationmode  sample-hold
attr title  "data queue length, timeavg"
scalar scenarioPRJP1.node[71].wlan.mgmt 	dropPkByQueue:count 	0
attr interpolationmode  none
attr source  dropPkByQueue
attr title  "packets dropped by queue, count"
scalar scenarioPRJP1.node[71].wlan.mgmt 	dropPkByQueue:sum(packetBytes) 	0
attr interpolationmode  none
attr source  dropPkByQueue
attr title  "packets dropped by queue, sum(packetBytes)"
scalar scenarioPRJP1.node[71].wlan.mac 	"number of received packets" 	1354
scalar scenarioPRJP1.node[71].wlan.mac 	"number of collisions" 	4586
scalar scenarioPRJP1.node[71].wlan.mac 	"number of internal collisions" 	2
scalar scenarioPRJP1.node[71].wlan.mac 	"number of retry for AC 0" 	1988
scalar scenarioPRJP1.node[71].wlan.mac 	"number of retry for AC 1" 	61
scalar scenarioPRJP1.node[71].wlan.mac 	"number of retry for AC 2" 	0
scalar scenarioPRJP1.node[71].wlan.mac 	"number of retry for AC 3" 	0
scalar scenarioPRJP1.node[71].wlan.mac 	"sent and received bits" 	23955296
scalar scenarioPRJP1.node[71].wlan.mac 	"sent packet within AC 0" 	589
scalar scenarioPRJP1.node[71].wlan.mac 	"sent packet within AC 1" 	40
scalar scenarioPRJP1.node[71].wlan.mac 	"sent packet within AC 2" 	0
scalar scenarioPRJP1.node[71].wlan.mac 	"sent packet within AC 3" 	0
scalar scenarioPRJP1.node[71].wlan.mac 	"sent in TXOP " 	0
scalar scenarioPRJP1.node[71].wlan.mac 	"sentWithoutRetry AC 0" 	550
scalar scenarioPRJP1.node[71].wlan.mac 	"sentWithoutRetry AC 1" 	39
scalar scenarioPRJP1.node[71].wlan.mac 	"sentWithoutRetry AC 2" 	0
scalar scenarioPRJP1.node[71].wlan.mac 	"sentWithoutRetry AC 3" 	0
scalar scenarioPRJP1.node[71].wlan.mac 	"numGivenUp AC 0" 	316
scalar scenarioPRJP1.node[71].wlan.mac 	"numGivenUp AC 1" 	10
scalar scenarioPRJP1.node[71].wlan.mac 	"numGivenUp AC 2" 	0
scalar scenarioPRJP1.node[71].wlan.mac 	"numGivenUp AC 3" 	0
scalar scenarioPRJP1.node[71].wlan.mac 	"numDropped AC 0" 	0
scalar scenarioPRJP1.node[71].wlan.mac 	"numDropped AC 1" 	0
scalar scenarioPRJP1.node[71].wlan.mac 	"numDropped AC 2" 	0
scalar scenarioPRJP1.node[71].wlan.mac 	"numDropped AC 3" 	0
scalar scenarioPRJP1.node[71].wlan.mac 	rcvdPkFromLL:count 	39601
attr interpolationmode  none
attr source  packetReceivedFromLower
attr title  "packets received from lower layer, count"
scalar scenarioPRJP1.node[71].wlan.mac 	rcvdPkFromLL:sum(packetBytes) 	22436890
attr interpolationmode  none
attr source  packetReceivedFromLower
attr title  "packets received from lower layer, sum(packetBytes)"
scalar scenarioPRJP1.node[71].wlan.mac 	sentDownPk:count 	6962
attr interpolationmode  none
attr source  packetSentToLower
attr title  "packets sent to lower layer, count"
scalar scenarioPRJP1.node[71].wlan.mac 	sentDownPk:sum(packetBytes) 	4253756
attr interpolationmode  none
attr source  packetSentToLower
attr title  "packets sent to lower layer, sum(packetBytes)"
scalar scenarioPRJP1.node[71].wlan.mac 	rcvdPkFromHL:count 	3561
attr interpolationmode  none
attr source  packetReceivedFromUpper
attr title  "packets received from higher layer, count"
scalar scenarioPRJP1.node[71].wlan.mac 	rcvdPkFromHL:sum(packetBytes) 	3165636
attr interpolationmode  none
attr source  packetReceivedFromUpper
attr title  "packets received from higher layer, sum(packetBytes)"
scalar scenarioPRJP1.node[71].wlan.mac 	passedUpPk:count 	12564
attr interpolationmode  none
attr source  packetSentToUpper
attr title  "packets passed to higher layer, count"
scalar scenarioPRJP1.node[71].wlan.mac 	passedUpPk:sum(packetBytes) 	12478628
attr interpolationmode  none
attr source  packetSentToUpper
attr title  "packets passed to higher layer, sum(packetBytes)"
statistic scenarioPRJP1.node[71].wlan.radio 	radioChannel:histogram
field count 1
field mean 3
field stddev nan
field sum 3
field sqrsum 9
field min 3
field max 3
attr interpolationmode  sample-hold
attr source  radioChannelChanged
attr title  "Radio channel, histogram"
bin	-INF	0
bin	2	0
bin	3	1
bin	4	0
scalar scenarioPRJP1.node[71].wlan.radio 	transmissionState:count 	27848
attr interpolationmode  sample-hold
attr source  transmissionStateChanged
attr title  "Radio transmission state, count"
scalar scenarioPRJP1.node[71].wlan.radio 	receptionState:count 	93720
attr interpolationmode  sample-hold
attr source  receptionStateChanged
attr title  "Radio reception state, count"
scalar scenarioPRJP1.node[71].wlan.radio 	radioMode:count 	13926
attr interpolationmode  sample-hold
attr source  radioModeChanged
attr title  "Radio mode, count"
statistic scenarioPRJP1.node[71].wlan.radio 	symbolErrorRate:histogram
field count 0
field mean nan
field stddev nan
field sum 0
field sqrsum 0
field min nan
field max nan
attr source  symbolErrorRate
attr title  "Symbol error rate, histogram"
bin	-INF	0
bin	-0.5	0
bin	-0.46666666666667	0
bin	-0.43333333333333	0
bin	-0.4	0
bin	-0.36666666666667	0
bin	-0.33333333333333	0
bin	-0.3	0
bin	-0.26666666666667	0
bin	-0.23333333333333	0
bin	-0.2	0
bin	-0.16666666666667	0
bin	-0.13333333333333	0
bin	-0.1	0
bin	-0.066666666666667	0
bin	-0.033333333333333	0
bin	0	0
bin	0.033333333333333	0
bin	0.066666666666667	0
bin	0.1	0
bin	0.13333333333333	0
bin	0.16666666666667	0
bin	0.2	0
bin	0.23333333333333	0
bin	0.26666666666667	0
bin	0.3	0
bin	0.33333333333333	0
bin	0.36666666666667	0
bin	0.4	0
bin	0.43333333333333	0
bin	0.46666666666667	0
bin	0.5	0
statistic scenarioPRJP1.node[71].wlan.radio 	bitErrorRate:histogram
field count 0
field mean nan
field stddev nan
field sum 0
field sqrsum 0
field min nan
field max nan
attr source  bitErrorRate
attr title  "Bit error rate, histogram"
bin	-INF	0
bin	-0.5	0
bin	-0.46666666666667	0
bin	-0.43333333333333	0
bin	-0.4	0
bin	-0.36666666666667	0
bin	-0.33333333333333	0
bin	-0.3	0
bin	-0.26666666666667	0
bin	-0.23333333333333	0
bin	-0.2	0
bin	-0.16666666666667	0
bin	-0.13333333333333	0
bin	-0.1	0
bin	-0.066666666666667	0
bin	-0.033333333333333	0
bin	0	0
bin	0.033333333333333	0
bin	0.066666666666667	0
bin	0.1	0
bin	0.13333333333333	0
bin	0.16666666666667	0
bin	0.2	0
bin	0.23333333333333	0
bin	0.26666666666667	0
bin	0.3	0
bin	0.33333333333333	0
bin	0.36666666666667	0
bin	0.4	0
bin	0.43333333333333	0
bin	0.46666666666667	0
bin	0.5	0
statistic scenarioPRJP1.node[71].wlan.radio 	packetErrorRate:histogram
field count 39601
field mean 0.10885404255121
field stddev 0.30344648790236
field sum 4310.7289390705
field sqrsum 4115.5992037632
field min 0
field max 1
attr source  packetErrorRate
attr title  "Packet error rate, histogram"
bin	-INF	4618
bin	-5.8282711989932e-10	0
bin	-5.0511683724608e-10	0
bin	-4.2740655459284e-10	0
bin	-3.4969627193959e-10	0
bin	-2.7198598928635e-10	0
bin	-1.9427570663311e-10	0
bin	-1.1656542397986e-10	0
bin	-3.8855141326621e-11	29881
bin	3.8855141326621e-11	180
bin	1.1656542397986e-10	92
bin	1.9427570663311e-10	51
bin	2.7198598928635e-10	55
bin	3.4969627193959e-10	42
bin	4.2740655459284e-10	26
bin	5.0511683724608e-10	24
bin	5.8282711989932e-10	22
bin	6.6053740255256e-10	18
bin	7.3824768520581e-10	15
bin	8.1595796785905e-10	16
bin	8.9366825051229e-10	15
bin	9.7137853316553e-10	9
bin	1.0490888158188e-09	17
bin	1.126799098472e-09	8
bin	1.2045093811253e-09	8
bin	1.2822196637785e-09	11
bin	1.3599299464317e-09	14
bin	1.437640229085e-09	5
bin	1.5153505117382e-09	5
bin	1.5930607943915e-09	12
bin	1.6707710770447e-09	14
bin	1.748481359698e-09	4443
statistic scenarioPRJP1.node[71].wlan.radio 	minSNIR:histogram
field count 39601
field mean 9414.3179137205
field stddev 66922.235102659
field sum 372816403.70125
field sqrsum 1.8086179997286e+14
field min 0.00045216444546407
field max 786381.108928
attr source  minSNIR
attr title  "Min SNIR, histogram"
bin	-INF	0
bin	-22901.331481113	0
bin	-19847.063023549	0
bin	-16792.794565985	0
bin	-13738.526108421	0
bin	-10684.257650857	0
bin	-7629.9891932929	0
bin	-4575.7207357289	0
bin	-1521.4522781649	33294
bin	1532.8161793991	2266
bin	4587.0846369631	838
bin	7641.3530945271	409
bin	10695.621552091	348
bin	13749.890009655	224
bin	16804.158467219	324
bin	19858.426924783	272
bin	22912.695382347	203
bin	25966.963839911	90
bin	29021.232297475	68
bin	32075.500755039	51
bin	35129.769212603	80
bin	38184.037670167	48
bin	41238.306127731	62
bin	44292.574585295	88
bin	47346.843042859	39
bin	50401.111500423	29
bin	53455.379957987	10
bin	56509.648415551	16
bin	59563.916873115	22
bin	62618.185330679	10
bin	65672.453788243	16
bin	68726.722245807	794
scalar scenarioPRJP1.node[71].lo0.lo 	droppedPkBitError:count 	0
attr interpolationmode  none
attr source  dropPkBitError
attr title  "packets dropped/bit error, count"
scalar scenarioPRJP1.node[71].lo0.lo 	droppedPkBitError:sum(packetBytes) 	0
attr interpolationmode  none
attr source  dropPkBitError
attr title  "packets dropped/bit error, sum(packetBytes)"
scalar scenarioPRJP1.node[71].lo0.lo 	rcvdPkFromHL:count 	6
attr interpolationmode  none
attr source  packetReceivedFromUpper
attr title  "packets received from higher layer, count"
scalar scenarioPRJP1.node[71].lo0.lo 	rcvdPkFromHL:sum(packetBytes) 	336
attr interpolationmode  none
attr source  packetReceivedFromUpper
attr title  "packets received from higher layer, sum(packetBytes)"
scalar scenarioPRJP1.node[71].lo0.lo 	passedUpPk:count 	6
attr interpolationmode  none
attr source  packetSentToUpper
attr title  "packets passed to higher layer, count"
scalar scenarioPRJP1.node[71].lo0.lo 	passedUpPk:sum(packetBytes) 	336
attr interpolationmode  none
attr source  packetSentToUpper
attr title  "packets passed to higher layer, sum(packetBytes)"
scalar scenarioPRJP1.node[1].app 	"Total sent" 	2626
scalar scenarioPRJP1.node[1].app 	"Total received" 	217
scalar scenarioPRJP1.node[1].app 	"Total deleted" 	0
scalar scenarioPRJP1.node[1].app 	dropPk:count 	0
attr interpolationmode  none
attr source  dropPk
attr title  "packets dropped, count"
scalar scenarioPRJP1.node[1].app 	dropPk:sum(packetBytes) 	0
attr interpolationmode  none
attr source  dropPk
attr title  "packets dropped, sum(packetBytes)"
scalar scenarioPRJP1.node[1].app 	outOfOrderPk:count 	0
attr interpolationmode  none
attr source  outOfOrderPk
attr title  "packets received out of order, count"
scalar scenarioPRJP1.node[1].app 	outOfOrderPk:sum(packetBytes) 	0
attr interpolationmode  none
attr source  outOfOrderPk
attr title  "packets received out of order, sum(packetBytes)"
scalar scenarioPRJP1.node[1].app 	rcvdPk:count 	217
attr interpolationmode  none
attr source  rcvdPk
attr title  "packets received, count"
scalar scenarioPRJP1.node[1].app 	rcvdPk:sum(packetBytes) 	111104
attr interpolationmode  none
attr source  rcvdPk
attr title  "packets received, sum(packetBytes)"
statistic scenarioPRJP1.node[1].app 	endToEndDelay:histogram
field count 217
field mean 0.093630999511429
field stddev 0.34039144295444
field sum 20.31792689398
field sqrsum 26.929516041391
field min 0.000945023142
field max 2.255426805586
attr interpolationmode  none
attr source  messageAge(rcvdPk)
attr title  "delay, histogram"
attr unit  s
bin	-INF	0
bin	-1.0176699016545	0
bin	-0.8818545783483	0
bin	-0.7460392550421	0
bin	-0.6102239317359	0
bin	-0.4744086084297	0
bin	-0.3385932851235	0
bin	-0.2027779618173	0
bin	-0.0669626385111	198
bin	0.0688526847951	4
bin	0.2046680081013	2
bin	0.3404833314075	0
bin	0.4762986547137	0
bin	0.6121139780199	0
bin	0.7479293013261	1
bin	0.8837446246323	4
bin	1.0195599479385	3
bin	1.1553752712447	0
bin	1.2911905945509	1
bin	1.4270059178571	0
bin	1.5628212411633	0
bin	1.6986365644695	1
bin	1.8344518877757	0
bin	1.9702672110819	2
bin	2.1060825343881	0
bin	2.2418978576943	1
bin	2.3777131810005	0
bin	2.5135285043067	0
bin	2.6493438276129	0
bin	2.7851591509191	0
bin	2.9209744742253	0
bin	3.0567897975315	0
scalar scenarioPRJP1.node[1].app 	sentPk:count 	2626
attr interpolationmode  none
attr source  sentPk
attr title  "packets sent, count"
scalar scenarioPRJP1.node[1].app 	sentPk:sum(packetBytes) 	1344512
attr interpolationmode  none
attr source  sentPk
attr title  "packets sent, sum(packetBytes)"
scalar scenarioPRJP1.node[1].udp 	droppedPkBadChecksum:count 	0
attr interpolationmode  none
attr title  "packets dropped (checksum error), count"
scalar scenarioPRJP1.node[1].udp 	droppedPkWrongPort:count 	0
attr interpolationmode  none
attr title  "packets dropped (wrong port), count"
scalar scenarioPRJP1.node[1].udp 	passedUpPk:count 	217
attr interpolationmode  none
attr title  "packets passed up, count"
scalar scenarioPRJP1.node[1].udp 	rcvdPk:count 	217
attr interpolationmode  none
attr source  rcvdPk
attr title  "packets received, count"
scalar scenarioPRJP1.node[1].udp 	rcvdPk:sum(packetBytes) 	112840
attr interpolationmode  none
attr source  rcvdPk
attr title  "packets received, sum(packetBytes)"
scalar scenarioPRJP1.node[1].udp 	sentPk:count 	2626
attr interpolationmode  none
attr source  sentPk
attr title  "packets sent, count"
scalar scenarioPRJP1.node[1].udp 	sentPk:sum(packetBytes) 	1365520
attr interpolationmode  none
attr source  sentPk
attr title  "packets sent, sum(packetBytes)"
scalar scenarioPRJP1.node[1].networkLayer.arp 	failedARPResolution:count 	13
attr title  "ARP failed resolutions, count"
scalar scenarioPRJP1.node[1].networkLayer.arp 	completedARPResolution:count 	504
attr title  "ARP completed resolutions, count"
scalar scenarioPRJP1.node[1].networkLayer.arp 	initiatedARPResolution:count 	71
attr title  "ARP initiated resolutions, count"
scalar scenarioPRJP1.node[1].networkLayer.arp 	sentReply:count 	58
attr title  "ARP replies sent, count"
scalar scenarioPRJP1.node[1].networkLayer.arp 	sentReq:count 	115
attr title  "ARP request sent, count"
scalar scenarioPRJP1.node[1].mobility 	startTime 	0.1
scalar scenarioPRJP1.node[1].mobility 	totalTime 	949.9
scalar scenarioPRJP1.node[1].mobility 	stopTime 	950
scalar scenarioPRJP1.node[1].mobility 	minSpeed 	2.4759749454631e-13
scalar scenarioPRJP1.node[1].mobility 	maxSpeed 	20.707496697774
scalar scenarioPRJP1.node[1].mobility 	totalDistance 	11222.771292927
scalar scenarioPRJP1.node[1].mobility 	totalCO2Emission 	2986.5606249773
scalar scenarioPRJP1.node[1].wlan.mgmt 	dataQueueLen:max 	2
attr interpolationmode  sample-hold
attr title  "data queue length, max"
scalar scenarioPRJP1.node[1].wlan.mgmt 	dataQueueLen:timeavg 	0
attr interpolationmode  sample-hold
attr title  "data queue length, timeavg"
scalar scenarioPRJP1.node[1].wlan.mgmt 	dropPkByQueue:count 	0
attr interpolationmode  none
attr source  dropPkByQueue
attr title  "packets dropped by queue, count"
scalar scenarioPRJP1.node[1].wlan.mgmt 	dropPkByQueue:sum(packetBytes) 	0
attr interpolationmode  none
attr source  dropPkByQueue
attr title  "packets dropped by queue, sum(packetBytes)"
scalar scenarioPRJP1.node[1].wlan.mac 	"number of received packets" 	2113
scalar scenarioPRJP1.node[1].wlan.mac 	"number of collisions" 	5895
scalar scenarioPRJP1.node[1].wlan.mac 	"number of internal collisions" 	1
scalar scenarioPRJP1.node[1].wlan.mac 	"number of retry for AC 0" 	2894
scalar scenarioPRJP1.node[1].wlan.mac 	"number of retry for AC 1" 	70
scalar scenarioPRJP1.node[1].wlan.mac 	"number of retry for AC 2" 	0
scalar scenarioPRJP1.node[1].wlan.mac 	"number of retry for AC 3" 	0
scalar scenarioPRJP1.node[1].wlan.mac 	"sent and received bits" 	27994464
scalar scenarioPRJP1.node[1].wlan.mac 	"sent packet within AC 0" 	1019
scalar scenarioPRJP1.node[1].wlan.mac 	"sent packet within AC 1" 	53
scalar scenarioPRJP1.node[1].wlan.mac 	"sent packet within AC 2" 	0
scalar scenarioPRJP1.node[1].wlan.mac 	"sent packet within AC 3" 	0
scalar scenarioPRJP1.node[1].wlan.mac 	"sent in TXOP " 	0
scalar scenarioPRJP1.node[1].wlan.mac 	"sentWithoutRetry AC 0" 	959
scalar scenarioPRJP1.node[1].wlan.mac 	"sentWithoutRetry AC 1" 	50
scalar scenarioPRJP1.node[1].wlan.mac 	"sentWithoutRetry AC 2" 	0
scalar scenarioPRJP1.node[1].wlan.mac 	"sentWithoutRetry AC 3" 	0
scalar scenarioPRJP1.node[1].wlan.mac 	"numGivenUp AC 0" 	461
scalar scenarioPRJP1.node[1].wlan.mac 	"numGivenUp AC 1" 	11
scalar scenarioPRJP1.node[1].wlan.mac 	"numGivenUp AC 2" 	0
scalar scenarioPRJP1.node[1].wlan.mac 	"numGivenUp AC 3" 	0
scalar scenarioPRJP1.node[1].wlan.mac 	"numDropped AC 0" 	0
scalar scenarioPRJP1.node[1].wlan.mac 	"numDropped AC 1" 	0
scalar scenarioPRJP1.node[1].wlan.mac 	"numDropped AC 2" 	0
scalar scenarioPRJP1.node[1].wlan.mac 	"numDropped AC 3" 	0
scalar scenarioPRJP1.node[1].wlan.mac 	rcvdPkFromLL:count 	47974
attr interpolationmode  none
attr source  packetReceivedFromLower
attr title  "packets received from lower layer, count"
scalar scenarioPRJP1.node[1].wlan.mac 	rcvdPkFromLL:sum(packetBytes) 	26794828
attr interpolationmode  none
attr source  packetReceivedFromLower
attr title  "packets received from lower layer, sum(packetBytes)"
scalar scenarioPRJP1.node[1].wlan.mac 	sentDownPk:count 	9501
attr interpolationmode  none
attr source  packetSentToLower
attr title  "packets sent to lower layer, count"
scalar scenarioPRJP1.node[1].wlan.mac 	sentDownPk:sum(packetBytes) 	5369942
attr interpolationmode  none
attr source  packetSentToLower
attr title  "packets sent to lower layer, sum(packetBytes)"
scalar scenarioPRJP1.node[1].wlan.mac 	rcvdPkFromHL:count 	4425
attr interpolationmode  none
attr source  packetReceivedFromUpper
attr title  "packets received from higher layer, count"
scalar scenarioPRJP1.node[1].wlan.mac 	rcvdPkFromHL:sum(packetBytes) 	3752032
attr interpolationmode  none
attr source  packetReceivedFromUpper
attr title  "packets received from higher layer, sum(packetBytes)"
scalar scenarioPRJP1.node[1].wlan.mac 	passedUpPk:count 	15392
attr interpolationmode  none
attr source  packetSentToUpper
attr title  "packets passed to higher layer, count"
scalar scenarioPRJP1.node[1].wlan.mac 	passedUpPk:sum(packetBytes) 	14982696
attr interpolationmode  none
attr source  packetSentToUpper
attr title  "packets passed to higher layer, sum(packetBytes)"
statistic scenarioPRJP1.node[1].wlan.radio 	radioChannel:histogram
field count 1
field mean 3
field stddev nan
field sum 3
field sqrsum 9
field min 3
field max 3
attr interpolationmode  sample-hold
attr source  radioChannelChanged
attr title  "Radio channel, histogram"
bin	-INF	0
bin	2	0
bin	3	1
bin	4	0
scalar scenarioPRJP1.node[1].wlan.radio 	transmissionState:count 	38004
attr interpolationmode  sample-hold
attr source  transmissionStateChanged
attr title  "Radio transmission state, count"
scalar scenarioPRJP1.node[1].wlan.radio 	receptionState:count 	115841
attr interpolationmode  sample-hold
attr source  receptionStateChanged
attr title  "Radio reception state, count"
scalar scenarioPRJP1.node[1].wlan.radio 	radioMode:count 	19004
attr interpolationmode  sample-hold
attr source  radioModeChanged
attr title  "Radio mode, count"
statistic scenarioPRJP1.node[1].wlan.radio 	symbolErrorRate:histogram
field count 0
field mean nan
field stddev nan
field sum 0
field sqrsum 0
field min nan
field max nan
attr source  symbolErrorRate
attr title  "Symbol error rate, histogram"
bin	-INF	0
bin	-0.5	0
bin	-0.46666666666667	0
bin	-0.43333333333333	0
bin	-0.4	0
bin	-0.36666666666667	0
bin	-0.33333333333333	0
bin	-0.3	0
bin	-0.26666666666667	0
bin	-0.23333333333333	0
bin	-0.2	0
bin	-0.16666666666667	0
bin	-0.13333333333333	0
bin	-0.1	0
bin	-0.066666666666667	0
bin	-0.033333333333333	0
bin	0	0
bin	0.033333333333333	0
bin	0.066666666666667	0
bin	0.1	0
bin	0.13333333333333	0
bin	0.16666666666667	0
bin	0.2	0
bin	0.23333333333333	0
bin	0.26666666666667	0
bin	0.3	0
bin	0.33333333333333	0
bin	0.36666666666667	0
bin	0.4	0
bin	0.43333333333333	0
bin	0.46666666666667	0
bin	0.5	0
statistic scenarioPRJP1.node[1].wlan.radio 	bitErrorRate:histogram
field count 0
field mean nan
field stddev nan
field sum 0
field sqrsum 0
field min nan
field max nan
attr source  bitErrorRate
attr title  "Bit error rate, histogram"
bin	-INF	0
bin	-0.5	0
bin	-0.46666666666667	0
bin	-0.43333333333333	0
bin	-0.4	0
bin	-0.36666666666667	0
bin	-0.33333333333333	0
bin	-0.3	0
bin	-0.26666666666667	0
bin	-0.23333333333333	0
bin	-0.2	0
bin	-0.16666666666667	0
bin	-0.13333333333333	0
bin	-0.1	0
bin	-0.066666666666667	0
bin	-0.033333333333333	0
bin	0	0
bin	0.033333333333333	0
bin	0.066666666666667	0
bin	0.1	0
bin	0.13333333333333	0
bin	0.16666666666667	0
bin	0.2	0
bin	0.23333333333333	0
bin	0.26666666666667	0
bin	0.3	0
bin	0.33333333333333	0
bin	0.36666666666667	0
bin	0.4	0
bin	0.43333333333333	0
bin	0.46666666666667	0
bin	0.5	0
statistic scenarioPRJP1.node[1].wlan.radio 	packetErrorRate:histogram
field count 47974
field mean 0.11599340917156
field stddev 0.31305397043799
field sum 5564.6678115962
field sqrsum 5346.9525586229
field min 0
field max 1
attr source  packetErrorRate
attr title  "Packet error rate, histogram"
bin	-INF	0
bin	-0.5	0
bin	-0.43333333333333	0
bin	-0.36666666666667	0
bin	-0.3	0
bin	-0.23333333333333	0
bin	-0.16666666666667	0
bin	-0.1	0
bin	-0.033333333333333	41478
bin	0.033333333333333	407
bin	0.1	195
bin	0.16666666666667	104
bin	0.23333333333333	90
bin	0.3	74
bin	0.36666666666667	74
bin	0.43333333333333	59
bin	0.5	62
bin	0.56666666666667	65
bin	0.63333333333333	39
bin	0.7	47
bin	0.76666666666667	60
bin	0.83333333333333	94
bin	0.9	125
bin	0.96666666666667	5001
bin	1.0333333333333	0
bin	1.1	0
bin	1.1666666666667	0
bin	1.2333333333333	0
bin	1.3	0
bin	1.3666666666667	0
bin	1.4333333333333	0
bin	1.5	0
statistic scenarioPRJP1.node[1].wlan.radio 	minSNIR:histogram
field count 47974
field mean 7791.7082089734
field stddev 55134.426962161
field sum 373799409.61729
field sqrsum 1.4874110294184e+14
field min 0.00029034228377852
field max 753239.71923443
attr source  minSNIR
attr title  "Min SNIR, histogram"
bin	-INF	0
bin	-5481.5712993071	0
bin	-4750.5606233388	0
bin	-4019.5499473706	0
bin	-3288.5392714023	0
bin	-2557.5285954341	0
bin	-1826.5179194659	0
bin	-1095.5072434976	0
bin	-364.49656752938	34563
bin	366.51410843886	4820
bin	1097.5247844071	1738
bin	1828.5354603753	855
bin	2559.5461363436	770
bin	3290.5568123118	395
bin	4021.5674882801	243
bin	4752.5781642483	250
bin	5483.5888402165	196
bin	6214.5995161848	155
bin	6945.610192153	129
bin	7676.6208681213	83
bin	8407.6315440895	123
bin	9138.6422200578	99
bin	9869.652896026	140
bin	10600.663571994	148
bin	11331.674247962	144
bin	12062.684923931	171
bin	12793.695599899	159
bin	13524.706275867	147
bin	14255.716951835	83
bin	14986.727627804	52
bin	15717.738303772	42
bin	16448.74897974	2469
scalar scenarioPRJP1.node[1].lo0.lo 	droppedPkBitError:count 	0
attr interpolationmode  none
attr source  dropPkBitError
attr title  "packets dropped/bit error, count"
scalar scenarioPRJP1.node[1].lo0.lo 	droppedPkBitError:sum(packetBytes) 	0
attr interpolationmode  none
attr source  dropPkBitError
attr title  "packets dropped/bit error, sum(packetBytes)"
scalar scenarioPRJP1.node[1].lo0.lo 	rcvdPkFromHL:count 	11
attr interpolationmode  none
attr source  packetReceivedFromUpper
attr title  "packets received from higher layer, count"
scalar scenarioPRJP1.node[1].lo0.lo 	rcvdPkFromHL:sum(packetBytes) 	616
attr interpolationmode  none
attr source  packetReceivedFromUpper
attr title  "packets received from higher layer, sum(packetBytes)"
scalar scenarioPRJP1.node[1].lo0.lo 	passedUpPk:count 	11
attr interpolationmode  none
attr source  packetSentToUpper
attr title  "packets passed to higher layer, count"
scalar scenarioPRJP1.node[1].lo0.lo 	passedUpPk:sum(packetBytes) 	616
attr interpolationmode  none
attr source  packetSentToUpper
attr title  "packets passed to higher layer, sum(packetBytes)"
scalar scenarioPRJP1.node[20].app 	"Total sent" 	2615
scalar scenarioPRJP1.node[20].app 	"Total received" 	184
scalar scenarioPRJP1.node[20].app 	"Total deleted" 	0
scalar scenarioPRJP1.node[20].app 	dropPk:count 	0
attr interpolationmode  none
attr source  dropPk
attr title  "packets dropped, count"
scalar scenarioPRJP1.node[20].app 	dropPk:sum(packetBytes) 	0
attr interpolationmode  none
attr source  dropPk
attr title  "packets dropped, sum(packetBytes)"
scalar scenarioPRJP1.node[20].app 	outOfOrderPk:count 	0
attr interpolationmode  none
attr source  outOfOrderPk
attr title  "packets received out of order, count"
scalar scenarioPRJP1.node[20].app 	outOfOrderPk:sum(packetBytes) 	0
attr interpolationmode  none
attr source  outOfOrderPk
attr title  "packets received out of order, sum(packetBytes)"
scalar scenarioPRJP1.node[20].app 	rcvdPk:count 	184
attr interpolationmode  none
attr source  rcvdPk
attr title  "packets received, count"
scalar scenarioPRJP1.node[20].app 	rcvdPk:sum(packetBytes) 	94208
attr interpolationmode  none
attr source  rcvdPk
attr title  "packets received, sum(packetBytes)"
statistic scenarioPRJP1.node[20].app 	endToEndDelay:histogram
field count 184
field mean 0.085482351818304
field stddev 0.3036842854378
field sum 15.728752734568
field sqrsum 18.221549350521
field min 0.000945032604
field max 2.027859662628
attr interpolationmode  none
attr source  messageAge(rcvdPk)
attr title  "delay, histogram"
attr unit  s
bin	-INF	0
bin	-0.779834913607	0
bin	-0.67573091702447	0
bin	-0.57162692044193	0
bin	-0.4675229238594	0
bin	-0.36341892727687	0
bin	-0.25931493069433	0
bin	-0.1552109341118	0
bin	-0.051106937529267	166
bin	0.052997059053267	3
bin	0.1571010556358	0
bin	0.26120505221833	3
bin	0.36530904880087	1
bin	0.4694130453834	1
bin	0.57351704196593	0
bin	0.67762103854847	0
bin	0.781725035131	1
bin	0.88582903171353	0
bin	0.98993302829607	6
bin	1.0940370248786	0
bin	1.1981410214611	0
bin	1.3022450180437	0
bin	1.4063490146262	0
bin	1.5104530112087	1
bin	1.6145570077913	0
bin	1.7186610043738	0
bin	1.8227650009563	0
bin	1.9268689975389	2
bin	2.0309729941214	0
bin	2.1350769907039	0
bin	2.2391809872865	0
bin	2.343284983869	0
scalar scenarioPRJP1.node[20].app 	sentPk:count 	2615
attr interpolationmode  none
attr source  sentPk
attr title  "packets sent, count"
scalar scenarioPRJP1.node[20].app 	sentPk:sum(packetBytes) 	1338880
attr interpolationmode  none
attr source  sentPk
attr title  "packets sent, sum(packetBytes)"
scalar scenarioPRJP1.node[20].udp 	droppedPkBadChecksum:count 	0
attr interpolationmode  none
attr title  "packets dropped (checksum error), count"
scalar scenarioPRJP1.node[20].udp 	droppedPkWrongPort:count 	0
attr interpolationmode  none
attr title  "packets dropped (wrong port), count"
scalar scenarioPRJP1.node[20].udp 	passedUpPk:count 	184
attr interpolationmode  none
attr title  "packets passed up, count"
scalar scenarioPRJP1.node[20].udp 	rcvdPk:count 	184
attr interpolationmode  none
attr source  rcvdPk
attr title  "packets received, count"
scalar scenarioPRJP1.node[20].udp 	rcvdPk:sum(packetBytes) 	95680
attr interpolationmode  none
attr source  rcvdPk
attr title  "packets received, sum(packetBytes)"
scalar scenarioPRJP1.node[20].udp 	sentPk:count 	2615
attr interpolationmode  none
attr source  sentPk
attr title  "packets sent, count"
scalar scenarioPRJP1.node[20].udp 	sentPk:sum(packetBytes) 	1359800
attr interpolationmode  none
attr source  sentPk
attr title  "packets sent, sum(packetBytes)"
scalar scenarioPRJP1.node[20].networkLayer.arp 	failedARPResolution:count 	10
attr title  "ARP failed resolutions, count"
scalar scenarioPRJP1.node[20].networkLayer.arp 	completedARPResolution:count 	430
attr title  "ARP completed resolutions, count"
scalar scenarioPRJP1.node[20].networkLayer.arp 	initiatedARPResolution:count 	64
attr title  "ARP initiated resolutions, count"
scalar scenarioPRJP1.node[20].networkLayer.arp 	sentReply:count 	44
attr title  "ARP replies sent, count"
scalar scenarioPRJP1.node[20].networkLayer.arp 	sentReq:count 	101
attr title  "ARP request sent, count"
scalar scenarioPRJP1.node[20].mobility 	startTime 	2.5
scalar scenarioPRJP1.node[20].mobility 	totalTime 	947.5
scalar scenarioPRJP1.node[20].mobility 	stopTime 	950
scalar scenarioPRJP1.node[20].mobility 	minSpeed 	2.4754408704426e-13
scalar scenarioPRJP1.node[20].mobility 	maxSpeed 	16.633566783073
scalar scenarioPRJP1.node[20].mobility 	totalDistance 	8511.8080052826
scalar scenarioPRJP1.node[20].mobility 	totalCO2Emission 	2316.8303623728
scalar scenarioPRJP1.node[20].wlan.mgmt 	dataQueueLen:max 	0
attr interpolationmode  sample-hold
attr title  "data queue length, max"
scalar scenarioPRJP1.node[20].wlan.mgmt 	dataQueueLen:timeavg 	0
attr interpolationmode  sample-hold
attr title  "data queue length, timeavg"
scalar scenarioPRJP1.node[20].wlan.mgmt 	dropPkByQueue:count 	0
attr interpolationmode  none
attr source  dropPkByQueue
attr title  "packets dropped by queue, count"
scalar scenarioPRJP1.node[20].wlan.mgmt 	dropPkByQueue:sum(packetBytes) 	0
attr interpolationmode  none
attr source  dropPkByQueue
attr title  "packets dropped by queue, sum(packetBytes)"
scalar scenarioPRJP1.node[20].wlan.mac 	"number of received packets" 	1675
scalar scenarioPRJP1.node[20].wlan.mac 	"number of collisions" 	5314
scalar scenarioPRJP1.node[20].wlan.mac 	"number of internal collisions" 	4
scalar scenarioPRJP1.node[20].wlan.mac 	"number of retry for AC 0" 	2379
scalar scenarioPRJP1.node[20].wlan.mac 	"number of retry for AC 1" 	74
scalar scenarioPRJP1.node[20].wlan.mac 	"number of retry for AC 2" 	0
scalar scenarioPRJP1.node[20].wlan.mac 	"number of retry for AC 3" 	0
scalar scenarioPRJP1.node[20].wlan.mac 	"sent and received bits" 	26493888
scalar scenarioPRJP1.node[20].wlan.mac 	"sent packet within AC 0" 	809
scalar scenarioPRJP1.node[20].wlan.mac 	"sent packet within AC 1" 	59
scalar scenarioPRJP1.node[20].wlan.mac 	"sent packet within AC 2" 	0
scalar scenarioPRJP1.node[20].wlan.mac 	"sent packet within AC 3" 	0
scalar scenarioPRJP1.node[20].wlan.mac 	"sent in TXOP " 	0
scalar scenarioPRJP1.node[20].wlan.mac 	"sentWithoutRetry AC 0" 	752
scalar scenarioPRJP1.node[20].wlan.mac 	"sentWithoutRetry AC 1" 	57
scalar scenarioPRJP1.node[20].wlan.mac 	"sentWithoutRetry AC 2" 	0
scalar scenarioPRJP1.node[20].wlan.mac 	"sentWithoutRetry AC 3" 	0
scalar scenarioPRJP1.node[20].wlan.mac 	"numGivenUp AC 0" 	377
scalar scenarioPRJP1.node[20].wlan.mac 	"numGivenUp AC 1" 	12
scalar scenarioPRJP1.node[20].wlan.mac 	"numGivenUp AC 2" 	0
scalar scenarioPRJP1.node[20].wlan.mac 	"numGivenUp AC 3" 	0
scalar scenarioPRJP1.node[20].wlan.mac 	"numDropped AC 0" 	0
scalar scenarioPRJP1.node[20].wlan.mac 	"numDropped AC 1" 	0
scalar scenarioPRJP1.node[20].wlan.mac 	"numDropped AC 2" 	0
scalar scenarioPRJP1.node[20].wlan.mac 	"numDropped AC 3" 	0
scalar scenarioPRJP1.node[20].wlan.mac 	rcvdPkFromLL:count 	41693
attr interpolationmode  none
attr source  packetReceivedFromLower
attr title  "packets received from lower layer, count"
scalar scenarioPRJP1.node[20].wlan.mac 	rcvdPkFromLL:sum(packetBytes) 	23705220
attr interpolationmode  none
attr source  packetReceivedFromLower
attr title  "packets received from lower layer, sum(packetBytes)"
scalar scenarioPRJP1.node[20].wlan.mac 	sentDownPk:count 	8177
attr interpolationmode  none
attr source  packetSentToLower
attr title  "packets sent to lower layer, count"
scalar scenarioPRJP1.node[20].wlan.mac 	sentDownPk:sum(packetBytes) 	4838138
attr interpolationmode  none
attr source  packetSentToLower
attr title  "packets sent to lower layer, sum(packetBytes)"
scalar scenarioPRJP1.node[20].wlan.mac 	rcvdPkFromHL:count 	4053
attr interpolationmode  none
attr source  packetReceivedFromUpper
attr title  "packets received from higher layer, count"
scalar scenarioPRJP1.node[20].wlan.mac 	rcvdPkFromHL:sum(packetBytes) 	3517192
attr interpolationmode  none
attr source  packetReceivedFromUpper
attr title  "packets received from higher layer, sum(packetBytes)"
scalar scenarioPRJP1.node[20].wlan.mac 	passedUpPk:count 	13636
attr interpolationmode  none
attr source  packetSentToUpper
attr title  "packets passed to higher layer, count"
scalar scenarioPRJP1.node[20].wlan.mac 	passedUpPk:sum(packetBytes) 	13400612
attr interpolationmode  none
attr source  packetSentToUpper
attr title  "packets passed to higher layer, sum(packetBytes)"
statistic scenarioPRJP1.node[20].wlan.radio 	radioChannel:histogram
field count 1
field mean 3
field stddev nan
field sum 3
field sqrsum 9
field min 3
field max 3
attr interpolationmode  sample-hold
[...]
scalar scenarioPRJP1.node[53].wlan.mac 	passedUpPk:count 	10505
attr interpolationmode  none
attr source  packetSentToUpper
attr title  "packets passed to higher layer, count"
scalar scenarioPRJP1.node[53].wlan.mac 	passedUpPk:sum(packetBytes) 	10418404
attr interpolationmode  none
attr source  packetSentToUpper
attr title  "packets passed to higher layer, sum(packetBytes)"
statistic scenarioPRJP1.node[53].wlan.radio 	radioChannel:histogram
field count 1
field mean 3
field stddev nan
field sum 3
field sqrsum 9
field min 3
field max 3
attr interpolationmode  sample-hold
attr source  radioChannelChanged
attr title  "Radio channel, histogram"
bin	-INF	0
bin	2	0
bin	3	1
bin	4	0
scalar scenarioPRJP1.node[53].wlan.radio 	transmissionState:count 	24768
attr interpolationmode  sample-hold
attr source  transmissionStateChanged
attr title  "Radio transmission state, count"
scalar scenarioPRJP1.node[53].wlan.radio 	receptionState:count 	75036
attr interpolationmode  sample-hold
attr source  receptionStateChanged
attr title  "Radio reception state, count"
scalar scenarioPRJP1.node[53].wlan.radio 	radioMode:count 	12386
attr interpolationmode  sample-hold
attr source  radioModeChanged
attr title  "Radio mode, count"
statistic scenarioPRJP1.node[53].wlan.radio 	symbolErrorRate:histogram
field count 0
field mean nan
field stddev nan
field sum 0
field sqrsum 0
field min nan
field max nan
attr source  symbolErrorRate
attr title  "Symbol error rate, histogram"
bin	-INF	0
bin	-0.5	0
bin	-0.46666666666667	0
bin	-0.43333333333333	0
bin	-0.4	0
bin	-0.36666666666667	0
bin	-0.33333333333333	0
bin	-0.3	0
bin	-0.26666666666667	0
bin	-0.23333333333333	0
bin	-0.2	0
bin	-0.16666666666667	0
bin	-0.13333333333333	0
bin	-0.1	0
bin	-0.066666666666667	0
bin	-0.033333333333333	0
bin	0	0
bin	0.033333333333333	0
bin	0.066666666666667	0
bin	0.1	0
bin	0.13333333333333	0
bin	0.16666666666667	0
bin	0.2	0
bin	0.23333333333333	0
bin	0.26666666666667	0
bin	0.3	0
bin	0.33333333333333	0
bin	0.36666666666667	0
bin	0.4	0
bin	0.43333333333333	0
bin	0.46666666666667	0
bin	0.5	0
statistic scenarioPRJP1.node[53].wlan.radio 	bitErrorRate:histogram
field count 0
field mean nan
field stddev nan
field sum 0
field sqrsum 0
field min nan
field max nan
attr source  bitErrorRate
attr title  "Bit error rate, histogram"
bin	-INF	0
bin	-0.5	0
bin	-0.46666666666667	0
bin	-0.43333333333333	0
bin	-0.4	0
bin	-0.36666666666667	0
bin	-0.33333333333333	0
bin	-0.3	0
bin	-0.26666666666667	0
bin	-0.23333333333333	0
bin	-0.2	0
bin	-0.16666666666667	0
bin	-0.13333333333333	0
bin	-0.1	0
bin	-0.066666666666667	0
bin	-0.033333333333333	0
bin	0	0
bin	0.033333333333333	0
bin	0.066666666666667	0
bin	0.1	0
bin	0.13333333333333	0
bin	0.16666666666667	0
bin	0.2	0
bin	0.23333333333333	0
bin	0.26666666666667	0
bin	0.3	0
bin	0.33333333333333	0
bin	0.36666666666667	0
bin	0.4	0
bin	0.43333333333333	0
bin	0.46666666666667	0
bin	0.5	0
statistic scenarioPRJP1.node[53].wlan.radio 	packetErrorRate:histogram
field count 31109
field mean 0.10984995609218
field stddev 0.30487327931932
field sum 3417.3222840716
field sqrsum 3266.8102659642
field min 0
field max 1
attr source  packetErrorRate
attr title  "Packet error rate, histogram"
bin	-INF	0
bin	-0.5	0
bin	-0.46666666666667	0
bin	-0.43333333333333	0
bin	-0.4	0
bin	-0.36666666666667	0
bin	-0.33333333333333	0
bin	-0.3	0
bin	-0.26666666666667	0
bin	-0.23333333333333	0
bin	-0.2	0
bin	-0.16666666666667	0
bin	-0.13333333333333	0
bin	-0.1	0
bin	-0.066666666666667	0
bin	-0.033333333333333	0
bin	0	27079
bin	0.033333333333333	147
bin	0.066666666666667	106
bin	0.1	60
bin	0.13333333333333	50
bin	0.16666666666667	48
bin	0.2	38
bin	0.23333333333333	31
bin	0.26666666666667	40
bin	0.3	27
bin	0.33333333333333	21
bin	0.36666666666667	20
bin	0.4	25
bin	0.43333333333333	21
bin	0.46666666666667	25
bin	0.5	3371
statistic scenarioPRJP1.node[53].wlan.radio 	minSNIR:histogram
field count 31109
field mean 10652.405119078
field stddev 64888.49724238
field sum 331385670.8494
field sqrsum 1.3451081956618e+14
field min 0.0002312145384053
field max 753239.71923441
attr source  minSNIR
attr title  "Min SNIR, histogram"
bin	-INF	0
bin	-12400.394069173	0
bin	-10744.642304738	0
bin	-9088.8905403034	0
bin	-7433.1387758688	0
bin	-5777.3870114341	0
bin	-4121.6352469995	0
bin	-2465.8834825649	0
bin	-810.1317181303	23905
bin	845.62004630431	2247
bin	2501.3718107389	948
bin	4157.1235751735	484
bin	5812.8753396081	330
bin	7468.6271040428	268
bin	9124.3788684774	184
bin	10780.130632912	236
bin	12435.882397347	152
bin	14091.634161781	140
bin	15747.385926216	214
bin	17403.13769065	167
bin	19058.889455085	100
bin	20714.64121952	54
bin	22370.392983954	85
bin	24026.144748389	126
bin	25681.896512823	32
bin	27337.648277258	33
bin	28993.400041693	26
bin	30649.151806127	67
bin	32304.903570562	21
bin	33960.655334997	16
bin	35616.407099431	22
bin	37272.158863866	1252
scalar scenarioPRJP1.node[53].lo0.lo 	droppedPkBitError:count 	0
attr interpolationmode  none
attr source  dropPkBitError
attr title  "packets dropped/bit error, count"
scalar scenarioPRJP1.node[53].lo0.lo 	droppedPkBitError:sum(packetBytes) 	0
attr interpolationmode  none
attr source  dropPkBitError
attr title  "packets dropped/bit error, sum(packetBytes)"
scalar scenarioPRJP1.node[53].lo0.lo 	rcvdPkFromHL:count 	5
attr interpolationmode  none
attr source  packetReceivedFromUpper
attr title  "packets received from higher layer, count"
scalar scenarioPRJP1.node[53].lo0.lo 	rcvdPkFromHL:sum(packetBytes) 	280
attr interpolationmode  none
attr source  packetReceivedFromUpper
attr title  "packets received from higher layer, sum(packetBytes)"
scalar scenarioPRJP1.node[53].lo0.lo 	passedUpPk:count 	5
attr interpolationmode  none
attr source  packetSentToUpper
attr title  "packets passed to higher layer, count"
scalar scenarioPRJP1.node[53].lo0.lo 	passedUpPk:sum(packetBytes) 	280
attr interpolationmode  none
attr source  packetSentToUpper
attr title  "packets passed to higher layer, sum(packetBytes)"
scalar scenarioPRJP1.node[70].app 	"Total sent" 	2599
scalar scenarioPRJP1.node[70].app 	"Total received" 	150
scalar scenarioPRJP1.node[70].app 	"Total deleted" 	0
scalar scenarioPRJP1.node[70].app 	dropPk:count 	0
attr interpolationmode  none
attr source  dropPk
attr title  "packets dropped, count"
scalar scenarioPRJP1.node[70].app 	dropPk:sum(packetBytes) 	0
attr interpolationmode  none
attr source  dropPk
attr title  "packets dropped, sum(packetBytes)"
scalar scenarioPRJP1.node[70].app 	outOfOrderPk:count 	0
attr interpolationmode  none
attr source  outOfOrderPk
attr title  "packets received out of order, count"
scalar scenarioPRJP1.node[70].app 	outOfOrderPk:sum(packetBytes) 	0
attr interpolationmode  none
attr source  outOfOrderPk
attr title  "packets received out of order, sum(packetBytes)"
scalar scenarioPRJP1.node[70].app 	rcvdPk:count 	150
attr interpolationmode  none
attr source  rcvdPk
attr title  "packets received, count"
scalar scenarioPRJP1.node[70].app 	rcvdPk:sum(packetBytes) 	76800
attr interpolationmode  none
attr source  rcvdPk
attr title  "packets received, sum(packetBytes)"
statistic scenarioPRJP1.node[70].app 	endToEndDelay:histogram
field count 150
field mean 0.08709222508488
field stddev 0.31194017379652
field sum 13.063833762732
field sqrsum 15.636452482738
field min 0.000945034378
field max 2.091811976202
attr interpolationmode  none
attr source  messageAge(rcvdPk)
attr title  "delay, histogram"
attr unit  s
bin	-INF	0
bin	-0.999639851859	0
bin	-0.86622853369407	0
bin	-0.73281721552913	0
bin	-0.5994058973642	0
bin	-0.46599457919927	0
bin	-0.33258326103433	0
bin	-0.1991719428694	0
bin	-0.065760624704467	138
bin	0.067650693460467	1
bin	0.2010620116254	1
bin	0.33447332979033	0
bin	0.46788464795527	1
bin	0.6012959661202	0
bin	0.73470728428513	1
bin	0.86811860245007	0
bin	1.001529920615	6
bin	1.1349412387799	0
bin	1.2683525569449	0
bin	1.4017638751098	0
bin	1.5351751932747	0
bin	1.6685865114397	0
bin	1.8019978296046	0
bin	1.9354091477695	1
bin	2.0688204659345	1
bin	2.2022317840994	0
bin	2.3356431022643	0
bin	2.4690544204293	0
bin	2.6024657385942	0
bin	2.7358770567591	0
bin	2.8692883749241	0
bin	3.002699693089	0
scalar scenarioPRJP1.node[70].app 	sentPk:count 	2599
attr interpolationmode  none
attr source  sentPk
attr title  "packets sent, count"
scalar scenarioPRJP1.node[70].app 	sentPk:sum(packetBytes) 	1330688
attr interpolationmode  none
attr source  sentPk
attr title  "packets sent, sum(packetBytes)"
scalar scenarioPRJP1.node[70].udp 	droppedPkBadChecksum:count 	0
attr interpolationmode  none
attr title  "packets dropped (checksum error), count"
scalar scenarioPRJP1.node[70].udp 	droppedPkWrongPort:count 	0
attr interpolationmode  none
attr title  "packets dropped (wrong port), count"
scalar scenarioPRJP1.node[70].udp 	passedUpPk:count 	150
attr interpolationmode  none
attr title  "packets passed up, count"
scalar scenarioPRJP1.node[70].udp 	rcvdPk:count 	150
attr interpolationmode  none
attr source  rcvdPk
attr title  "packets received, count"
scalar scenarioPRJP1.node[70].udp 	rcvdPk:sum(packetBytes) 	78000
attr interpolationmode  none
attr source  rcvdPk
attr title  "packets received, sum(packetBytes)"
scalar scenarioPRJP1.node[70].udp 	sentPk:count 	2599
attr interpolationmode  none
attr source  sentPk
attr title  "packets sent, count"
scalar scenarioPRJP1.node[70].udp 	sentPk:sum(packetBytes) 	1351480
attr interpolationmode  none
attr source  sentPk
attr title  "packets sent, sum(packetBytes)"
scalar scenarioPRJP1.node[70].networkLayer.arp 	failedARPResolution:count 	2
attr title  "ARP failed resolutions, count"
scalar scenarioPRJP1.node[70].networkLayer.arp 	completedARPResolution:count 	325
attr title  "ARP completed resolutions, count"
scalar scenarioPRJP1.node[70].networkLayer.arp 	initiatedARPResolution:count 	50
attr title  "ARP initiated resolutions, count"
scalar scenarioPRJP1.node[70].networkLayer.arp 	sentReply:count 	45
attr title  "ARP replies sent, count"
scalar scenarioPRJP1.node[70].networkLayer.arp 	sentReq:count 	69
attr title  "ARP request sent, count"
scalar scenarioPRJP1.node[70].mobility 	startTime 	7.3
scalar scenarioPRJP1.node[70].mobility 	totalTime 	942.7
scalar scenarioPRJP1.node[70].mobility 	stopTime 	950
scalar scenarioPRJP1.node[70].mobility 	minSpeed 	2.4754719925e-13
scalar scenarioPRJP1.node[70].mobility 	maxSpeed 	20.469690807336
scalar scenarioPRJP1.node[70].mobility 	totalDistance 	9346.4158946662
scalar scenarioPRJP1.node[70].mobility 	totalCO2Emission 	2695.3170540799
scalar scenarioPRJP1.node[70].wlan.mgmt 	dataQueueLen:max 	0
attr interpolationmode  sample-hold
attr title  "data queue length, max"
scalar scenarioPRJP1.node[70].wlan.mgmt 	dataQueueLen:timeavg 	0
attr interpolationmode  sample-hold
attr title  "data queue length, timeavg"
scalar scenarioPRJP1.node[70].wlan.mgmt 	dropPkByQueue:count 	0
attr interpolationmode  none
attr source  dropPkByQueue
attr title  "packets dropped by queue, count"
scalar scenarioPRJP1.node[70].wlan.mgmt 	dropPkByQueue:sum(packetBytes) 	0
attr interpolationmode  none
attr source  dropPkByQueue
attr title  "packets dropped by queue, sum(packetBytes)"
scalar scenarioPRJP1.node[70].wlan.mac 	"number of received packets" 	1329
scalar scenarioPRJP1.node[70].wlan.mac 	"number of collisions" 	3089
scalar scenarioPRJP1.node[70].wlan.mac 	"number of internal collisions" 	1
scalar scenarioPRJP1.node[70].wlan.mac 	"number of retry for AC 0" 	1795
scalar scenarioPRJP1.node[70].wlan.mac 	"number of retry for AC 1" 	42
scalar scenarioPRJP1.node[70].wlan.mac 	"number of retry for AC 2" 	0
scalar scenarioPRJP1.node[70].wlan.mac 	"number of retry for AC 3" 	0
scalar scenarioPRJP1.node[70].wlan.mac 	"sent and received bits" 	22283968
scalar scenarioPRJP1.node[70].wlan.mac 	"sent packet within AC 0" 	611
scalar scenarioPRJP1.node[70].wlan.mac 	"sent packet within AC 1" 	20
scalar scenarioPRJP1.node[70].wlan.mac 	"sent packet within AC 2" 	0
scalar scenarioPRJP1.node[70].wlan.mac 	"sent packet within AC 3" 	0
scalar scenarioPRJP1.node[70].wlan.mac 	"sent in TXOP " 	0
scalar scenarioPRJP1.node[70].wlan.mac 	"sentWithoutRetry AC 0" 	571
scalar scenarioPRJP1.node[70].wlan.mac 	"sentWithoutRetry AC 1" 	20
scalar scenarioPRJP1.node[70].wlan.mac 	"sentWithoutRetry AC 2" 	0
scalar scenarioPRJP1.node[70].wlan.mac 	"sentWithoutRetry AC 3" 	0
scalar scenarioPRJP1.node[70].wlan.mac 	"numGivenUp AC 0" 	284
scalar scenarioPRJP1.node[70].wlan.mac 	"numGivenUp AC 1" 	7
scalar scenarioPRJP1.node[70].wlan.mac 	"numGivenUp AC 2" 	0
scalar scenarioPRJP1.node[70].wlan.mac 	"numGivenUp AC 3" 	0
scalar scenarioPRJP1.node[70].wlan.mac 	"numDropped AC 0" 	0
scalar scenarioPRJP1.node[70].wlan.mac 	"numDropped AC 1" 	0
scalar scenarioPRJP1.node[70].wlan.mac 	"numDropped AC 2" 	0
scalar scenarioPRJP1.node[70].wlan.mac 	"numDropped AC 3" 	0
scalar scenarioPRJP1.node[70].wlan.mac 	rcvdPkFromLL:count 	28192
attr interpolationmode  none
attr source  packetReceivedFromLower
attr title  "packets received from lower layer, count"
scalar scenarioPRJP1.node[70].wlan.mac 	rcvdPkFromLL:sum(packetBytes) 	16786176
attr interpolationmode  none
attr source  packetReceivedFromLower
attr title  "packets received from lower layer, sum(packetBytes)"
scalar scenarioPRJP1.node[70].wlan.mac 	sentDownPk:count 	6461
attr interpolationmode  none
attr source  packetSentToLower
attr title  "packets sent to lower layer, count"
scalar scenarioPRJP1.node[70].wlan.mac 	sentDownPk:sum(packetBytes) 	3914914
attr interpolationmode  none
attr source  packetSentToLower
attr title  "packets sent to lower layer, sum(packetBytes)"
scalar scenarioPRJP1.node[70].wlan.mac 	rcvdPkFromHL:count 	3296
attr interpolationmode  none
attr source  packetReceivedFromUpper
attr title  "packets received from higher layer, count"
scalar scenarioPRJP1.node[70].wlan.mac 	rcvdPkFromHL:sum(packetBytes) 	2937436
attr interpolationmode  none
attr source  packetReceivedFromUpper
attr title  "packets received from higher layer, sum(packetBytes)"
scalar scenarioPRJP1.node[70].wlan.mac 	passedUpPk:count 	10529
attr interpolationmode  none
attr source  packetSentToUpper
attr title  "packets passed to higher layer, count"
scalar scenarioPRJP1.node[70].wlan.mac 	passedUpPk:sum(packetBytes) 	10384556
attr interpolationmode  none
attr source  packetSentToUpper
attr title  "packets passed to higher layer, sum(packetBytes)"
statistic scenarioPRJP1.node[70].wlan.radio 	radioChannel:histogram
field count 1
field mean 3
field stddev nan
field sum 3
field sqrsum 9
field min 3
field max 3
attr interpolationmode  sample-hold
attr source  radioChannelChanged
attr title  "Radio channel, histogram"
bin	-INF	0
bin	2	0
bin	3	1
bin	4	0
scalar scenarioPRJP1.node[70].wlan.radio 	transmissionState:count 	25844
attr interpolationmode  sample-hold
attr source  transmissionStateChanged
attr title  "Radio transmission state, count"
scalar scenarioPRJP1.node[70].wlan.radio 	receptionState:count 	69615
attr interpolationmode  sample-hold
attr source  receptionStateChanged
attr title  "Radio reception state, count"
scalar scenarioPRJP1.node[70].wlan.radio 	radioMode:count 	12924
attr interpolationmode  sample-hold
attr source  radioModeChanged
attr title  "Radio mode, count"
statistic scenarioPRJP1.node[70].wlan.radio 	symbolErrorRate:histogram
field count 0
field mean nan
field stddev nan
field sum 0
field sqrsum 0
field min nan
field max nan
attr source  symbolErrorRate
attr title  "Symbol error rate, histogram"
bin	-INF	0
bin	-0.5	0
bin	-0.46666666666667	0
bin	-0.43333333333333	0
bin	-0.4	0
bin	-0.36666666666667	0
bin	-0.33333333333333	0
bin	-0.3	0
bin	-0.26666666666667	0
bin	-0.23333333333333	0
bin	-0.2	0
bin	-0.16666666666667	0
bin	-0.13333333333333	0
bin	-0.1	0
bin	-0.066666666666667	0
bin	-0.033333333333333	0
bin	0	0
bin	0.033333333333333	0
bin	0.066666666666667	0
bin	0.1	0
bin	0.13333333333333	0
bin	0.16666666666667	0
bin	0.2	0
bin	0.23333333333333	0
bin	0.26666666666667	0
bin	0.3	0
bin	0.33333333333333	0
bin	0.36666666666667	0
bin	0.4	0
bin	0.43333333333333	0
bin	0.46666666666667	0
bin	0.5	0
statistic scenarioPRJP1.node[70].wlan.radio 	bitErrorRate:histogram
field count 0
field mean nan
field stddev nan
field sum 0
field sqrsum 0
field min nan
field max nan
attr source  bitErrorRate
attr title  "Bit error rate, histogram"
bin	-INF	0
bin	-0.5	0
bin	-0.46666666666667	0
bin	-0.43333333333333	0
bin	-0.4	0
bin	-0.36666666666667	0
bin	-0.33333333333333	0
bin	-0.3	0
bin	-0.26666666666667	0
bin	-0.23333333333333	0
bin	-0.2	0
bin	-0.16666666666667	0
bin	-0.13333333333333	0
bin	-0.1	0
bin	-0.066666666666667	0
bin	-0.033333333333333	0
bin	0	0
bin	0.033333333333333	0
bin	0.066666666666667	0
bin	0.1	0
bin	0.13333333333333	0
bin	0.16666666666667	0
bin	0.2	0
bin	0.23333333333333	0
bin	0.26666666666667	0
bin	0.3	0
bin	0.33333333333333	0
bin	0.36666666666667	0
bin	0.4	0
bin	0.43333333333333	0
bin	0.46666666666667	0
bin	0.5	0
statistic scenarioPRJP1.node[70].wlan.radio 	packetErrorRate:histogram
field count 28192
field mean 0.10305094879102
field stddev 0.29472180049769
field sum 2905.2123483165
field sqrsum 2748.0816396947
field min 0
field max 1
attr source  packetErrorRate
attr title  "Packet error rate, histogram"
bin	-INF	0
bin	-0.5	0
bin	-0.46666666666667	0
bin	-0.43333333333333	0
bin	-0.4	0
bin	-0.36666666666667	0
bin	-0.33333333333333	0
bin	-0.3	0
bin	-0.26666666666667	0
bin	-0.23333333333333	0
bin	-0.2	0
bin	-0.16666666666667	0
bin	-0.13333333333333	0
bin	-0.1	0
bin	-0.066666666666667	0
bin	-0.033333333333333	0
bin	0	24634
bin	0.033333333333333	153
bin	0.066666666666667	102
bin	0.1	83
bin	0.13333333333333	49
bin	0.16666666666667	51
bin	0.2	39
bin	0.23333333333333	45
bin	0.26666666666667	29
bin	0.3	22
bin	0.33333333333333	44
bin	0.36666666666667	25
bin	0.4	23
bin	0.43333333333333	31
bin	0.46666666666667	26
bin	0.5	2836
statistic scenarioPRJP1.node[70].wlan.radio 	minSNIR:histogram
field count 28192
field mean 13302.489644309
field stddev 82367.027138636
field sum 375023788.05235
field sqrsum 1.9624571701482e+14
field min 0.0019053799121728
field max 753239.71923443
attr source  minSNIR
attr title  "Min SNIR, histogram"
bin	-INF	0
bin	-17919.234474233	0
bin	-15528.091980644	0
bin	-13136.949487055	0
bin	-10745.806993466	0
bin	-8354.6644998771	0
bin	-5963.5220062881	0
bin	-3572.3795126991	0
bin	-1181.2370191101	23004
bin	1209.9054744789	1422
bin	3601.0479680679	552
bin	5992.1904616569	383
bin	8383.3329552459	251
bin	10774.475448835	288
bin	13165.617942424	208
bin	15556.760436013	111
bin	17947.902929602	198
bin	20339.045423191	192
bin	22730.18791678	81
bin	25121.330410369	78
bin	27512.472903958	65
bin	29903.615397547	54
bin	32294.757891136	46
bin	34685.900384725	49
bin	37077.042878314	23
bin	39468.185371903	38
bin	41859.327865492	20
bin	44250.470359081	33
bin	46641.61285267	39
bin	49032.755346259	53
bin	51423.897839848	28
bin	53815.040333437	976
scalar scenarioPRJP1.node[70].lo0.lo 	droppedPkBitError:count 	0
attr interpolationmode  none
attr source  dropPkBitError
attr title  "packets dropped/bit error, count"
scalar scenarioPRJP1.node[70].lo0.lo 	droppedPkBitError:sum(packetBytes) 	0
attr interpolationmode  none
attr source  dropPkBitError
attr title  "packets dropped/bit error, sum(packetBytes)"
scalar scenarioPRJP1.node[70].lo0.lo 	rcvdPkFromHL:count 	9
attr interpolationmode  none
attr source  packetReceivedFromUpper
attr title  "packets received from higher layer, count"
scalar scenarioPRJP1.node[70].lo0.lo 	rcvdPkFromHL:sum(packetBytes) 	504
attr interpolationmode  none
attr source  packetReceivedFromUpper
attr title  "packets received from higher layer, sum(packetBytes)"
scalar scenarioPRJP1.node[70].lo0.lo 	passedUpPk:count 	9
attr interpolationmode  none
attr source  packetSentToUpper
attr title  "packets passed to higher layer, count"
scalar scenarioPRJP1.node[70].lo0.lo 	passedUpPk:sum(packetBytes) 	504
attr interpolationmode  none
attr source  packetSentToUpper
attr title  "packets passed to higher layer, sum(packetBytes)"
