version 2
run AODVRouting-LNS-100n-24-20150725-12:10:49-31801
attr configname AODVRouting-LNS-100n
attr datetime 20150725-12:10:49
attr experiment AODVRouting-LNS-100n
attr inifile omnetpp.ini
attr iterationvars ""
attr iterationvars2 $repetition=24
attr measurement ""
attr network Prj_Part1_propag.scenarioPRJP1
attr processid 31801
attr repetition 24
attr replication #24
attr resultdir results
attr runnumber 24
attr seedset 24

scalar scenarioPRJP1.node[57].app 	"Total sent" 	373
scalar scenarioPRJP1.node[57].app 	"Total received" 	20
scalar scenarioPRJP1.node[57].app 	"Total deleted" 	0
scalar scenarioPRJP1.node[57].app 	dropPk:count 	0
attr interpolationmode  none
attr source  dropPk
attr title  "packets dropped, count"
scalar scenarioPRJP1.node[57].app 	dropPk:sum(packetBytes) 	0
attr interpolationmode  none
attr source  dropPk
attr title  "packets dropped, sum(packetBytes)"
scalar scenarioPRJP1.node[57].app 	outOfOrderPk:count 	0
attr interpolationmode  none
attr source  outOfOrderPk
attr title  "packets received out of order, count"
scalar scenarioPRJP1.node[57].app 	outOfOrderPk:sum(packetBytes) 	0
attr interpolationmode  none
attr source  outOfOrderPk
attr title  "packets received out of order, sum(packetBytes)"
scalar scenarioPRJP1.node[57].app 	rcvdPk:count 	20
attr interpolationmode  none
attr source  rcvdPk
attr title  "packets received, count"
scalar scenarioPRJP1.node[57].app 	rcvdPk:sum(packetBytes) 	10240
attr interpolationmode  none
attr source  rcvdPk
attr title  "packets received, sum(packetBytes)"
statistic scenarioPRJP1.node[57].app 	endToEndDelay:histogram
field count 20
field mean 0.26526483719935
field stddev 0.6393855984084
field sum 5.305296743987
field sqrsum 9.1747736026771
field min 0.000945860369
field max 2.004752597202
attr interpolationmode  none
attr source  messageAge(rcvdPk)
attr title  "delay, histogram"
attr unit  s
bin	-INF	0
bin	-1.0009575080475	0
bin	-0.86737039225863	0
bin	-0.73378327646977	0
bin	-0.6001961606809	0
bin	-0.46660904489203	0
bin	-0.33302192910317	0
bin	-0.1994348133143	0
bin	-0.065847697525434	17
bin	0.067739418263433	0
bin	0.2013265340523	0
bin	0.33491364984117	0
bin	0.46850076563003	0
bin	0.6020878814189	0
bin	0.73567499720777	0
bin	0.86926211299663	0
bin	1.0028492287855	1
bin	1.1364363445744	0
bin	1.2700234603632	0
bin	1.4036105761521	0
bin	1.537197691941	0
bin	1.6707848077298	0
bin	1.8043719235187	0
bin	1.9379590393076	2
bin	2.0715461550964	0
bin	2.2051332708853	0
bin	2.3387203866742	0
bin	2.472307502463	0
bin	2.6058946182519	0
bin	2.7394817340408	0
bin	2.8730688498296	0
bin	3.0066559656185	0
scalar scenarioPRJP1.node[57].app 	sentPk:count 	373
attr interpolationmode  none
attr source  sentPk
attr title  "packets sent, count"
scalar scenarioPRJP1.node[57].app 	sentPk:sum(packetBytes) 	190976
attr interpolationmode  none
attr source  sentPk
attr title  "packets sent, sum(packetBytes)"
scalar scenarioPRJP1.node[57].udp 	droppedPkBadChecksum:count 	0
attr interpolationmode  none
attr title  "packets dropped (checksum error), count"
scalar scenarioPRJP1.node[57].udp 	droppedPkWrongPort:count 	0
attr interpolationmode  none
attr title  "packets dropped (wrong port), count"
scalar scenarioPRJP1.node[57].udp 	passedUpPk:count 	20
attr interpolationmode  none
attr title  "packets passed up, count"
scalar scenarioPRJP1.node[57].udp 	rcvdPk:count 	20
attr interpolationmode  none
attr source  rcvdPk
attr title  "packets received, count"
scalar scenarioPRJP1.node[57].udp 	rcvdPk:sum(packetBytes) 	10400
attr interpolationmode  none
attr source  rcvdPk
attr title  "packets received, sum(packetBytes)"
scalar scenarioPRJP1.node[57].udp 	sentPk:count 	373
attr interpolationmode  none
attr source  sentPk
attr title  "packets sent, count"
scalar scenarioPRJP1.node[57].udp 	sentPk:sum(packetBytes) 	193960
attr interpolationmode  none
attr source  sentPk
attr title  "packets sent, sum(packetBytes)"
scalar scenarioPRJP1.node[57].networkLayer.arp 	failedARPResolution:count 	20
attr title  "ARP failed resolutions, count"
scalar scenarioPRJP1.node[57].networkLayer.arp 	completedARPResolution:count 	474
attr title  "ARP completed resolutions, count"
scalar scenarioPRJP1.node[57].networkLayer.arp 	initiatedARPResolution:count 	42
attr title  "ARP initiated resolutions, count"
scalar scenarioPRJP1.node[57].networkLayer.arp 	sentReply:count 	15
attr title  "ARP replies sent, count"
scalar scenarioPRJP1.node[57].networkLayer.arp 	sentReq:count 	96
attr title  "ARP request sent, count"
scalar scenarioPRJP1.node[57].mobility 	startTime 	5
scalar scenarioPRJP1.node[57].mobility 	totalTime 	154.8
scalar scenarioPRJP1.node[57].mobility 	stopTime 	159.9
scalar scenarioPRJP1.node[57].mobility 	minSpeed 	2.4754289698769e-13
scalar scenarioPRJP1.node[57].mobility 	maxSpeed 	18.168858871276
scalar scenarioPRJP1.node[57].mobility 	totalDistance 	1483.4324894702
scalar scenarioPRJP1.node[57].mobility 	totalCO2Emission 	450.75395852298
scalar scenarioPRJP1.node[57].wlan[0].mgmt 	dataQueueLen:max 	0
attr interpolationmode  sample-hold
attr title  "data queue length, max"
scalar scenarioPRJP1.node[57].wlan[0].mgmt 	dataQueueLen:timeavg 	0
attr interpolationmode  sample-hold
attr title  "data queue length, timeavg"
scalar scenarioPRJP1.node[57].wlan[0].mgmt 	dropPkByQueue:count 	0
attr interpolationmode  none
attr source  dropPkByQueue
attr title  "packets dropped by queue, count"
scalar scenarioPRJP1.node[57].wlan[0].mgmt 	dropPkByQueue:sum(packetBytes) 	0
attr interpolationmode  none
attr source  dropPkByQueue
attr title  "packets dropped by queue, sum(packetBytes)"
scalar scenarioPRJP1.node[57].wlan[0].mac 	"number of received packets" 	109
scalar scenarioPRJP1.node[57].wlan[0].mac 	"number of collisions" 	4887
scalar scenarioPRJP1.node[57].wlan[0].mac 	"number of internal collisions" 	0
scalar scenarioPRJP1.node[57].wlan[0].mac 	"number of retry for AC 0" 	459
scalar scenarioPRJP1.node[57].wlan[0].mac 	"number of retry for AC 1" 	0
scalar scenarioPRJP1.node[57].wlan[0].mac 	"number of retry for AC 2" 	0
scalar scenarioPRJP1.node[57].wlan[0].mac 	"number of retry for AC 3" 	0
scalar scenarioPRJP1.node[57].wlan[0].mac 	"sent and received bits" 	1664416
scalar scenarioPRJP1.node[57].wlan[0].mac 	"sent packet within AC 0" 	44
scalar scenarioPRJP1.node[57].wlan[0].mac 	"sent packet within AC 1" 	0
scalar scenarioPRJP1.node[57].wlan[0].mac 	"sent packet within AC 2" 	0
scalar scenarioPRJP1.node[57].wlan[0].mac 	"sent packet within AC 3" 	0
scalar scenarioPRJP1.node[57].wlan[0].mac 	"sent in TXOP " 	0
scalar scenarioPRJP1.node[57].wlan[0].mac 	"sentWithoutRetry AC 0" 	33
scalar scenarioPRJP1.node[57].wlan[0].mac 	"sentWithoutRetry AC 1" 	0
scalar scenarioPRJP1.node[57].wlan[0].mac 	"sentWithoutRetry AC 2" 	0
scalar scenarioPRJP1.node[57].wlan[0].mac 	"sentWithoutRetry AC 3" 	0
scalar scenarioPRJP1.node[57].wlan[0].mac 	"numGivenUp AC 0" 	73
scalar scenarioPRJP1.node[57].wlan[0].mac 	"numGivenUp AC 1" 	0
scalar scenarioPRJP1.node[57].wlan[0].mac 	"numGivenUp AC 2" 	0
scalar scenarioPRJP1.node[57].wlan[0].mac 	"numGivenUp AC 3" 	0
scalar scenarioPRJP1.node[57].wlan[0].mac 	"numDropped AC 0" 	0
scalar scenarioPRJP1.node[57].wlan[0].mac 	"numDropped AC 1" 	0
scalar scenarioPRJP1.node[57].wlan[0].mac 	"numDropped AC 2" 	0
scalar scenarioPRJP1.node[57].wlan[0].mac 	"numDropped AC 3" 	0
scalar scenarioPRJP1.node[57].wlan[0].mac 	rcvdPkFromLL:count 	20441
attr interpolationmode  none
attr source  packetReceivedFromLower
attr title  "packets received from lower layer, count"
scalar scenarioPRJP1.node[57].wlan[0].mac 	rcvdPkFromLL:sum(packetBytes) 	3069110
attr interpolationmode  none
attr source  packetReceivedFromLower
attr title  "packets received from lower layer, sum(packetBytes)"
scalar scenarioPRJP1.node[57].wlan[0].mac 	sentDownPk:count 	2901
attr interpolationmode  none
attr source  packetSentToLower
attr title  "packets sent to lower layer, count"
scalar scenarioPRJP1.node[57].wlan[0].mac 	sentDownPk:sum(packetBytes) 	435166
attr interpolationmode  none
attr source  packetSentToLower
attr title  "packets sent to lower layer, sum(packetBytes)"
scalar scenarioPRJP1.node[57].wlan[0].mac 	rcvdPkFromHL:count 	2333
attr interpolationmode  none
attr source  packetReceivedFromUpper
attr title  "packets received from higher layer, count"
scalar scenarioPRJP1.node[57].wlan[0].mac 	rcvdPkFromHL:sum(packetBytes) 	239116
attr interpolationmode  none
attr source  packetReceivedFromUpper
attr title  "packets received from higher layer, sum(packetBytes)"
scalar scenarioPRJP1.node[57].wlan[0].mac 	passedUpPk:count 	11887
attr interpolationmode  none
attr source  packetSentToUpper
attr title  "packets passed to higher layer, count"
scalar scenarioPRJP1.node[57].wlan[0].mac 	passedUpPk:sum(packetBytes) 	1050556
attr interpolationmode  none
attr source  packetSentToUpper
attr title  "packets passed to higher layer, sum(packetBytes)"
statistic scenarioPRJP1.node[57].wlan[0].radio 	radioChannel:histogram
field count 1
field mean 3
field stddev -nan
field sum 3
field sqrsum 9
field min 3
field max 3
attr interpolationmode  sample-hold
attr source  radioChannelChanged
attr title  "Radio channel, histogram"
bin	-INF	0
bin	2	0
bin	3	1
bin	4	0
scalar scenarioPRJP1.node[57].wlan[0].radio 	transmissionState:count 	11604
attr interpolationmode  sample-hold
attr source  transmissionStateChanged
attr title  "Radio transmission state, count"
scalar scenarioPRJP1.node[57].wlan[0].radio 	receptionState:count 	48212
attr interpolationmode  sample-hold
attr source  receptionStateChanged
attr title  "Radio reception state, count"
scalar scenarioPRJP1.node[57].wlan[0].radio 	radioMode:count 	5804
attr interpolationmode  sample-hold
attr source  radioModeChanged
attr title  "Radio mode, count"
statistic scenarioPRJP1.node[57].wlan[0].radio 	symbolErrorRate:histogram
field count 0
field mean -nan
field stddev -nan
field sum 0
field sqrsum 0
field min -nan
field max -nan
attr source  symbolErrorRate
attr title  "Symbol error rate, histogram"
bin	-INF	0
bin	-0.5	0
bin	-0.46666666666667	0
bin	-0.43333333333333	0
bin	-0.4	0
bin	-0.36666666666667	0
bin	-0.33333333333333	0
bin	-0.3	0
bin	-0.26666666666667	0
bin	-0.23333333333333	0
bin	-0.2	0
bin	-0.16666666666667	0
bin	-0.13333333333333	0
bin	-0.1	0
bin	-0.066666666666667	0
bin	-0.033333333333333	0
bin	0	0
bin	0.033333333333333	0
bin	0.066666666666667	0
bin	0.1	0
bin	0.13333333333333	0
bin	0.16666666666667	0
bin	0.2	0
bin	0.23333333333333	0
bin	0.26666666666667	0
bin	0.3	0
bin	0.33333333333333	0
bin	0.36666666666667	0
bin	0.4	0
bin	0.43333333333333	0
bin	0.46666666666667	0
bin	0.5	0
statistic scenarioPRJP1.node[57].wlan[0].radio 	bitErrorRate:histogram
field count 0
field mean -nan
field stddev -nan
field sum 0
field sqrsum 0
field min -nan
field max -nan
attr source  bitErrorRate
attr title  "Bit error rate, histogram"
bin	-INF	0
bin	-0.5	0
bin	-0.46666666666667	0
bin	-0.43333333333333	0
bin	-0.4	0
bin	-0.36666666666667	0
bin	-0.33333333333333	0
bin	-0.3	0
bin	-0.26666666666667	0
bin	-0.23333333333333	0
bin	-0.2	0
bin	-0.16666666666667	0
bin	-0.13333333333333	0
bin	-0.1	0
bin	-0.066666666666667	0
bin	-0.033333333333333	0
bin	0	0
bin	0.033333333333333	0
bin	0.066666666666667	0
bin	0.1	0
bin	0.13333333333333	0
bin	0.16666666666667	0
bin	0.2	0
bin	0.23333333333333	0
bin	0.26666666666667	0
bin	0.3	0
bin	0.33333333333333	0
bin	0.36666666666667	0
bin	0.4	0
bin	0.43333333333333	0
bin	0.46666666666667	0
bin	0.5	0
statistic scenarioPRJP1.node[57].wlan[0].radio 	packetErrorRate:histogram
field count 20441
field mean 0.19440730408968
field stddev 0.38560172642604
field sum 3973.8797028971
field sqrsum 3811.7480924978
field min 0
field max 1
attr source  packetErrorRate
attr title  "Packet error rate, histogram"
bin	-INF	0
bin	-0.5	0
bin	-0.43333333333333	0
bin	-0.36666666666667	0
bin	-0.3	0
bin	-0.23333333333333	0
bin	-0.16666666666667	0
bin	-0.1	0
bin	-0.033333333333333	15763
bin	0.033333333333333	299
bin	0.1	149
bin	0.16666666666667	94
bin	0.23333333333333	74
bin	0.3	62
bin	0.36666666666667	50
bin	0.43333333333333	41
bin	0.5	40
bin	0.56666666666667	32
bin	0.63333333333333	34
bin	0.7	41
bin	0.76666666666667	50
bin	0.83333333333333	59
bin	0.9	100
bin	0.96666666666667	3553
bin	1.0333333333333	0
bin	1.1	0
bin	1.1666666666667	0
bin	1.2333333333333	0
bin	1.3	0
bin	1.3666666666667	0
bin	1.4333333333333	0
bin	1.5	0
statistic scenarioPRJP1.node[57].wlan[0].radio 	minSNIR:histogram
field count 20441
field mean 969.83138780454
field stddev 14599.067480019
field sum 19824323.398113
field sqrsum 4375660096162.5
field min 0.00020308348641999
field max 1272771.9340989
attr source  minSNIR
attr title  "Min SNIR, histogram"
bin	-INF	0
bin	-678.14534997032	0
bin	-587.72570636102	0
bin	-497.30606275171	0
bin	-406.88641914241	0
bin	-316.46677553311	0
bin	-226.0471319238	0
bin	-135.6274883145	0
bin	-45.207844705198	14113
bin	45.211798904105	1826
bin	135.63144251341	1409
bin	226.05108612271	573
bin	316.47072973201	343
bin	406.89037334132	248
bin	497.31001695062	170
bin	587.72966055992	148
bin	678.14930416923	120
bin	768.56894777853	95
bin	858.98859138783	78
bin	949.40823499714	65
bin	1039.8278786064	68
bin	1130.2475222157	54
bin	1220.667165825	40
bin	1311.0868094343	46
bin	1401.5064530437	35
bin	1491.926096653	38
bin	1582.3457402623	27
bin	1672.7653838716	27
bin	1763.1850274809	23
bin	1853.6046710902	29
bin	1944.0243146995	23
bin	2034.4439583088	843
scalar scenarioPRJP1.node[57].lo0.lo 	droppedPkBitError:count 	0
attr interpolationmode  none
attr source  dropPkBitError
attr title  "packets dropped/bit error, count"
scalar scenarioPRJP1.node[57].lo0.lo 	droppedPkBitError:sum(packetBytes) 	0
attr interpolationmode  none
attr source  dropPkBitError
attr title  "packets dropped/bit error, sum(packetBytes)"
scalar scenarioPRJP1.node[57].lo0.lo 	rcvdPkFromHL:count 	0
attr interpolationmode  none
attr source  packetReceivedFromUpper
attr title  "packets received from higher layer, count"
scalar scenarioPRJP1.node[57].lo0.lo 	rcvdPkFromHL:sum(packetBytes) 	0
attr interpolationmode  none
attr source  packetReceivedFromUpper
attr title  "packets received from higher layer, sum(packetBytes)"
scalar scenarioPRJP1.node[57].lo0.lo 	passedUpPk:count 	0
attr interpolationmode  none
attr source  packetSentToUpper
attr title  "packets passed to higher layer, count"
scalar scenarioPRJP1.node[57].lo0.lo 	passedUpPk:sum(packetBytes) 	0
attr interpolationmode  none
attr source  packetSentToUpper
attr title  "packets passed to higher layer, sum(packetBytes)"
scalar scenarioPRJP1.node[62].app 	"Total sent" 	371
scalar scenarioPRJP1.node[62].app 	"Total received" 	26
scalar scenarioPRJP1.node[62].app 	"Total deleted" 	0
scalar scenarioPRJP1.node[62].app 	dropPk:count 	0
attr interpolationmode  none
attr source  dropPk
attr title  "packets dropped, count"
scalar scenarioPRJP1.node[62].app 	dropPk:sum(packetBytes) 	0
attr interpolationmode  none
attr source  dropPk
attr title  "packets dropped, sum(packetBytes)"
scalar scenarioPRJP1.node[62].app 	outOfOrderPk:count 	0
attr interpolationmode  none
attr source  outOfOrderPk
attr title  "packets received out of order, count"
scalar scenarioPRJP1.node[62].app 	outOfOrderPk:sum(packetBytes) 	0
attr interpolationmode  none
attr source  outOfOrderPk
attr title  "packets received out of order, sum(packetBytes)"
scalar scenarioPRJP1.node[62].app 	rcvdPk:count 	26
attr interpolationmode  none
attr source  rcvdPk
attr title  "packets received, count"
scalar scenarioPRJP1.node[62].app 	rcvdPk:sum(packetBytes) 	13312
attr interpolationmode  none
attr source  rcvdPk
attr title  "packets received, sum(packetBytes)"
statistic scenarioPRJP1.node[62].app 	endToEndDelay:histogram
field count 26
field mean 0.26236376558281
field stddev 0.67905244507822
field sum 6.821457905153
field sqrsum 13.317508961928
field min 0.000958133575
field max 2.813431776648
attr interpolationmode  none
attr source  messageAge(rcvdPk)
attr title  "delay, histogram"
attr unit  s
bin	-INF	0
bin	-1.4052786879615	0
bin	-1.21778044509	0
bin	-1.0302822022184	0
bin	-0.8427839593469	0
bin	-0.65528571647537	0
bin	-0.46778747360383	0
bin	-0.2802892307323	0
bin	-0.092790987860766	20
bin	0.094707255010767	2
bin	0.2822054978823	1
bin	0.46970374075383	0
bin	0.65720198362537	0
bin	0.8447002264969	1
bin	1.0321984693684	0
bin	1.21969671224	0
bin	1.4071949551115	0
bin	1.594693197983	0
bin	1.7821914408546	0
bin	1.9696896837261	1
bin	2.1571879265976	0
bin	2.3446861694692	0
bin	2.5321844123407	0
bin	2.7196826552122	1
bin	2.9071808980838	0
bin	3.0946791409553	0
bin	3.2821773838268	0
bin	3.4696756266984	0
bin	3.6571738695699	0
bin	3.8446721124414	0
bin	4.032170355313	0
bin	4.2196685981845	0
scalar scenarioPRJP1.node[62].app 	sentPk:count 	371
attr interpolationmode  none
attr source  sentPk
attr title  "packets sent, count"
scalar scenarioPRJP1.node[62].app 	sentPk:sum(packetBytes) 	189952
attr interpolationmode  none
attr source  sentPk
attr title  "packets sent, sum(packetBytes)"
scalar scenarioPRJP1.node[62].udp 	droppedPkBadChecksum:count 	0
attr interpolationmode  none
attr title  "packets dropped (checksum error), count"
scalar scenarioPRJP1.node[62].udp 	droppedPkWrongPort:count 	0
attr interpolationmode  none
attr title  "packets dropped (wrong port), count"
scalar scenarioPRJP1.node[62].udp 	passedUpPk:count 	26
attr interpolationmode  none
attr title  "packets passed up, count"
scalar scenarioPRJP1.node[62].udp 	rcvdPk:count 	26
attr interpolationmode  none
attr source  rcvdPk
attr title  "packets received, count"
scalar scenarioPRJP1.node[62].udp 	rcvdPk:sum(packetBytes) 	13520
attr interpolationmode  none
attr source  rcvdPk
attr title  "packets received, sum(packetBytes)"
scalar scenarioPRJP1.node[62].udp 	sentPk:count 	371
attr interpolationmode  none
attr source  sentPk
attr title  "packets sent, count"
scalar scenarioPRJP1.node[62].udp 	sentPk:sum(packetBytes) 	192920
attr interpolationmode  none
attr source  sentPk
attr title  "packets sent, sum(packetBytes)"
scalar scenarioPRJP1.node[62].networkLayer.arp 	failedARPResolution:count 	46
attr title  "ARP failed resolutions, count"
scalar scenarioPRJP1.node[62].networkLayer.arp 	completedARPResolution:count 	646
attr title  "ARP completed resolutions, count"
scalar scenarioPRJP1.node[62].networkLayer.arp 	initiatedARPResolution:count 	64
attr title  "ARP initiated resolutions, count"
scalar scenarioPRJP1.node[62].networkLayer.arp 	sentReply:count 	15
attr title  "ARP replies sent, count"
scalar scenarioPRJP1.node[62].networkLayer.arp 	sentReq:count 	169
attr title  "ARP request sent, count"
scalar scenarioPRJP1.node[62].mobility 	startTime 	7.3
scalar scenarioPRJP1.node[62].mobility 	totalTime 	152.8
scalar scenarioPRJP1.node[62].mobility 	stopTime 	160.2
scalar scenarioPRJP1.node[62].mobility 	minSpeed 	2.4755316284056e-13
scalar scenarioPRJP1.node[62].mobility 	maxSpeed 	17.837364453905
scalar scenarioPRJP1.node[62].mobility 	totalDistance 	1484.1840362583
scalar scenarioPRJP1.node[62].mobility 	totalCO2Emission 	441.93107655624
scalar scenarioPRJP1.node[62].wlan[0].mgmt 	dataQueueLen:max 	0
attr interpolationmode  sample-hold
attr title  "data queue length, max"
scalar scenarioPRJP1.node[62].wlan[0].mgmt 	dataQueueLen:timeavg 	0
attr interpolationmode  sample-hold
attr title  "data queue length, timeavg"
scalar scenarioPRJP1.node[62].wlan[0].mgmt 	dropPkByQueue:count 	0
attr interpolationmode  none
attr source  dropPkByQueue
attr title  "packets dropped by queue, count"
scalar scenarioPRJP1.node[62].wlan[0].mgmt 	dropPkByQueue:sum(packetBytes) 	0
attr interpolationmode  none
attr source  dropPkByQueue
attr title  "packets dropped by queue, sum(packetBytes)"
scalar scenarioPRJP1.node[62].wlan[0].mac 	"number of received packets" 	112
scalar scenarioPRJP1.node[62].wlan[0].mac 	"number of collisions" 	6049
scalar scenarioPRJP1.node[62].wlan[0].mac 	"number of internal collisions" 	0
scalar scenarioPRJP1.node[62].wlan[0].mac 	"number of retry for AC 0" 	513
scalar scenarioPRJP1.node[62].wlan[0].mac 	"number of retry for AC 1" 	0
scalar scenarioPRJP1.node[62].wlan[0].mac 	"number of retry for AC 2" 	0
scalar scenarioPRJP1.node[62].wlan[0].mac 	"number of retry for AC 3" 	0
scalar scenarioPRJP1.node[62].wlan[0].mac 	"sent and received bits" 	1725824
scalar scenarioPRJP1.node[62].wlan[0].mac 	"sent packet within AC 0" 	44
scalar scenarioPRJP1.node[62].wlan[0].mac 	"sent packet within AC 1" 	0
scalar scenarioPRJP1.node[62].wlan[0].mac 	"sent packet within AC 2" 	0
scalar scenarioPRJP1.node[62].wlan[0].mac 	"sent packet within AC 3" 	0
scalar scenarioPRJP1.node[62].wlan[0].mac 	"sent in TXOP " 	0
scalar scenarioPRJP1.node[62].wlan[0].mac 	"sentWithoutRetry AC 0" 	34
scalar scenarioPRJP1.node[62].wlan[0].mac 	"sentWithoutRetry AC 1" 	0
scalar scenarioPRJP1.node[62].wlan[0].mac 	"sentWithoutRetry AC 2" 	0
scalar scenarioPRJP1.node[62].wlan[0].mac 	"sentWithoutRetry AC 3" 	0
scalar scenarioPRJP1.node[62].wlan[0].mac 	"numGivenUp AC 0" 	80
scalar scenarioPRJP1.node[62].wlan[0].mac 	"numGivenUp AC 1" 	0
scalar scenarioPRJP1.node[62].wlan[0].mac 	"numGivenUp AC 2" 	0
scalar scenarioPRJP1.node[62].wlan[0].mac 	"numGivenUp AC 3" 	0
scalar scenarioPRJP1.node[62].wlan[0].mac 	"numDropped AC 0" 	0
scalar scenarioPRJP1.node[62].wlan[0].mac 	"numDropped AC 1" 	0
scalar scenarioPRJP1.node[62].wlan[0].mac 	"numDropped AC 2" 	0
scalar scenarioPRJP1.node[62].wlan[0].mac 	"numDropped AC 3" 	0
scalar scenarioPRJP1.node[62].wlan[0].mac 	rcvdPkFromLL:count 	23094
attr interpolationmode  none
attr source  packetReceivedFromLower
attr title  "packets received from lower layer, count"
scalar scenarioPRJP1.node[62].wlan[0].mac 	rcvdPkFromLL:sum(packetBytes) 	3521502
attr interpolationmode  none
attr source  packetReceivedFromLower
attr title  "packets received from lower layer, sum(packetBytes)"
scalar scenarioPRJP1.node[62].wlan[0].mac 	sentDownPk:count 	3065
attr interpolationmode  none
attr source  packetSentToLower
attr title  "packets sent to lower layer, count"
scalar scenarioPRJP1.node[62].wlan[0].mac 	sentDownPk:sum(packetBytes) 	490200
attr interpolationmode  none
attr source  packetSentToLower
attr title  "packets sent to lower layer, sum(packetBytes)"
scalar scenarioPRJP1.node[62].wlan[0].mac 	rcvdPkFromHL:count 	2440
attr interpolationmode  none
attr source  packetReceivedFromUpper
attr title  "packets received from higher layer, count"
scalar scenarioPRJP1.node[62].wlan[0].mac 	rcvdPkFromHL:sum(packetBytes) 	252280
attr interpolationmode  none
attr source  packetReceivedFromUpper
attr title  "packets received from higher layer, sum(packetBytes)"
scalar scenarioPRJP1.node[62].wlan[0].mac 	passedUpPk:count 	13168
attr interpolationmode  none
attr source  packetSentToUpper
attr title  "packets passed to higher layer, count"
scalar scenarioPRJP1.node[62].wlan[0].mac 	passedUpPk:sum(packetBytes) 	1160848
attr interpolationmode  none
attr source  packetSentToUpper
attr title  "packets passed to higher layer, sum(packetBytes)"
statistic scenarioPRJP1.node[62].wlan[0].radio 	radioChannel:histogram
field count 1
field mean 3
field stddev -nan
field sum 3
field sqrsum 9
field min 3
field max 3
attr interpolationmode  sample-hold
attr source  radioChannelChanged
attr title  "Radio channel, histogram"
bin	-INF	0
bin	2	0
bin	3	1
bin	4	0
scalar scenarioPRJP1.node[62].wlan[0].radio 	transmissionState:count 	12260
attr interpolationmode  sample-hold
attr source  transmissionStateChanged
attr title  "Radio transmission state, count"
scalar scenarioPRJP1.node[62].wlan[0].radio 	receptionState:count 	54341
attr interpolationmode  sample-hold
attr source  receptionStateChanged
attr title  "Radio reception state, count"
scalar scenarioPRJP1.node[62].wlan[0].radio 	radioMode:count 	6132
attr interpolationmode  sample-hold
attr source  radioModeChanged
attr title  "Radio mode, count"
statistic scenarioPRJP1.node[62].wlan[0].radio 	symbolErrorRate:histogram
field count 0
field mean -nan
field stddev -nan
field sum 0
field sqrsum 0
field min -nan
field max -nan
attr source  symbolErrorRate
attr title  "Symbol error rate, histogram"
bin	-INF	0
bin	-0.5	0
bin	-0.46666666666667	0
bin	-0.43333333333333	0
bin	-0.4	0
bin	-0.36666666666667	0
bin	-0.33333333333333	0
bin	-0.3	0
bin	-0.26666666666667	0
bin	-0.23333333333333	0
bin	-0.2	0
bin	-0.16666666666667	0
bin	-0.13333333333333	0
bin	-0.1	0
bin	-0.066666666666667	0
bin	-0.033333333333333	0
bin	0	0
bin	0.033333333333333	0
bin	0.066666666666667	0
bin	0.1	0
bin	0.13333333333333	0
bin	0.16666666666667	0
bin	0.2	0
bin	0.23333333333333	0
bin	0.26666666666667	0
bin	0.3	0
bin	0.33333333333333	0
bin	0.36666666666667	0
bin	0.4	0
bin	0.43333333333333	0
bin	0.46666666666667	0
bin	0.5	0
statistic scenarioPRJP1.node[62].wlan[0].radio 	bitErrorRate:histogram
field count 0
field mean -nan
field stddev -nan
field sum 0
field sqrsum 0
field min -nan
field max -nan
attr source  bitErrorRate
attr title  "Bit error rate, histogram"
bin	-INF	0
bin	-0.5	0
bin	-0.46666666666667	0
bin	-0.43333333333333	0
bin	-0.4	0
bin	-0.36666666666667	0
bin	-0.33333333333333	0
bin	-0.3	0
bin	-0.26666666666667	0
bin	-0.23333333333333	0
bin	-0.2	0
bin	-0.16666666666667	0
bin	-0.13333333333333	0
bin	-0.1	0
bin	-0.066666666666667	0
bin	-0.033333333333333	0
bin	0	0
bin	0.033333333333333	0
bin	0.066666666666667	0
bin	0.1	0
bin	0.13333333333333	0
bin	0.16666666666667	0
bin	0.2	0
bin	0.23333333333333	0
bin	0.26666666666667	0
bin	0.3	0
bin	0.33333333333333	0
bin	0.36666666666667	0
bin	0.4	0
bin	0.43333333333333	0
bin	0.46666666666667	0
bin	0.5	0
statistic scenarioPRJP1.node[62].wlan[0].radio 	packetErrorRate:histogram
field count 23094
field mean 0.21432877316823
field stddev 0.40008607180412
field sum 4949.708687547
field sqrsum 4757.3352865612
field min 0
field max 1
attr source  packetErrorRate
attr title  "Packet error rate, histogram"
bin	-INF	0
bin	-0.5	0
bin	-0.43333333333333	0
bin	-0.36666666666667	0
bin	-0.3	0
bin	-0.23333333333333	0
bin	-0.16666666666667	0
bin	-0.1	0
bin	-0.033333333333333	17331
bin	0.033333333333333	344
bin	0.1	173
bin	0.16666666666667	105
bin	0.23333333333333	81
bin	0.3	61
bin	0.36666666666667	59
bin	0.43333333333333	56
bin	0.5	48
bin	0.56666666666667	47
bin	0.63333333333333	51
bin	0.7	63
bin	0.76666666666667	50
bin	0.83333333333333	58
bin	0.9	89
bin	0.96666666666667	4478
bin	1.0333333333333	0
bin	1.1	0
bin	1.1666666666667	0
bin	1.2333333333333	0
bin	1.3	0
bin	1.3666666666667	0
bin	1.4333333333333	0
bin	1.5	0
statistic scenarioPRJP1.node[62].wlan[0].radio 	minSNIR:histogram
field count 23094
field mean 1226.5251512138
field stddev 16059.422161337
field sum 28325371.842132
field sqrsum 5990542873305.4
field min 0.00032908146699868
field max 1348546.8967468
attr source  minSNIR
attr title  "Min SNIR, histogram"
bin	-INF	0
bin	-331.0557286686	0
bin	-286.91399951015	0
bin	-242.7722703517	0
bin	-198.63054119325	0
bin	-154.4888120348	0
bin	-110.34708287635	0
bin	-66.205353717897	0
bin	-22.063624559447	14328
bin	22.078104599004	2482
bin	66.219833757454	705
bin	110.3615629159	983
bin	154.50329207435	770
bin	198.6450212328	484
bin	242.78675039125	345
bin	286.92847954971	260
bin	331.07020870816	214
bin	375.21193786661	186
bin	419.35366702506	148
bin	463.49539618351	118
bin	507.63712534196	116
bin	551.77885450041	86
bin	595.92058365886	81
bin	640.06231281731	63
bin	684.20404197576	66
bin	728.34577113421	54
bin	772.48750029266	51
bin	816.62922945111	45
bin	860.77095860956	42
bin	904.91268776801	35
bin	949.05441692646	41
bin	993.19614608491	1391
scalar scenarioPRJP1.node[62].lo0.lo 	droppedPkBitError:count 	0
attr interpolationmode  none
attr source  dropPkBitError
attr title  "packets dropped/bit error, count"
scalar scenarioPRJP1.node[62].lo0.lo 	droppedPkBitError:sum(packetBytes) 	0
attr interpolationmode  none
attr source  dropPkBitError
attr title  "packets dropped/bit error, sum(packetBytes)"
scalar scenarioPRJP1.node[62].lo0.lo 	rcvdPkFromHL:count 	0
attr interpolationmode  none
attr source  packetReceivedFromUpper
attr title  "packets received from higher layer, count"
scalar scenarioPRJP1.node[62].lo0.lo 	rcvdPkFromHL:sum(packetBytes) 	0
attr interpolationmode  none
attr source  packetReceivedFromUpper
attr title  "packets received from higher layer, sum(packetBytes)"
scalar scenarioPRJP1.node[62].lo0.lo 	passedUpPk:count 	0
attr interpolationmode  none
attr source  packetSentToUpper
attr title  "packets passed to higher layer, count"
scalar scenarioPRJP1.node[62].lo0.lo 	passedUpPk:sum(packetBytes) 	0
attr interpolationmode  none
attr source  packetSentToUpper
attr title  "packets passed to higher layer, sum(packetBytes)"
scalar scenarioPRJP1.node[53].app 	"Total sent" 	371
scalar scenarioPRJP1.node[53].app 	"Total received" 	17
scalar scenarioPRJP1.node[53].app 	"Total deleted" 	0
scalar scenarioPRJP1.node[53].app 	dropPk:count 	0
attr interpolationmode  none
attr source  dropPk
attr title  "packets dropped, count"
scalar scenarioPRJP1.node[53].app 	dropPk:sum(packetBytes) 	0
attr interpolationmode  none
attr source  dropPk
attr title  "packets dropped, sum(packetBytes)"
scalar scenarioPRJP1.node[53].app 	outOfOrderPk:count 	0
attr interpolationmode  none
attr source  outOfOrderPk
attr title  "packets received out of order, count"
scalar scenarioPRJP1.node[53].app 	outOfOrderPk:sum(packetBytes) 	0
attr interpolationmode  none
attr source  outOfOrderPk
attr title  "packets received out of order, sum(packetBytes)"
scalar scenarioPRJP1.node[53].app 	rcvdPk:count 	17
attr interpolationmode  none
attr source  rcvdPk
attr title  "packets received, count"
scalar scenarioPRJP1.node[53].app 	rcvdPk:sum(packetBytes) 	8704
attr interpolationmode  none
attr source  rcvdPk
attr title  "packets received, sum(packetBytes)"
statistic scenarioPRJP1.node[53].app 	endToEndDelay:histogram
field count 17
field mean 0.18546605982765
field stddev 0.5273296791717
field sum 3.15292301707
field sqrsum 5.033985657481
field min 0.001191499154
field max 2.006206510046
attr interpolationmode  none
attr source  messageAge(rcvdPk)
attr title  "delay, histogram"
attr unit  s
bin	-INF	0
bin	-1.001316006292	0
bin	-0.8676483388992	0
bin	-0.7339806715064	0
bin	-0.6003130041136	0
bin	-0.4666453367208	0
bin	-0.332977669328	0
bin	-0.1993100019352	0
bin	-0.0656423345424	15
bin	0.0680253328504	0
bin	0.2016930002432	0
bin	0.335360667636	0
bin	0.4690283350288	0
bin	0.6026960024216	0
bin	0.7363636698144	0
bin	0.8700313372072	1
bin	1.0036990046	0
bin	1.1373666719928	0
bin	1.2710343393856	0
bin	1.4047020067784	0
bin	1.5383696741712	0
bin	1.672037341564	0
bin	1.8057050089568	0
bin	1.9393726763496	1
bin	2.0730403437424	0
bin	2.2067080111352	0
bin	2.340375678528	0
bin	2.4740433459208	0
bin	2.6077110133136	0
bin	2.7413786807064	0
bin	2.8750463480992	0
bin	3.008714015492	0
scalar scenarioPRJP1.node[53].app 	sentPk:count 	371
attr interpolationmode  none
attr source  sentPk
attr title  "packets sent, count"
scalar scenarioPRJP1.node[53].app 	sentPk:sum(packetBytes) 	189952
attr interpolationmode  none
attr source  sentPk
attr title  "packets sent, sum(packetBytes)"
scalar scenarioPRJP1.node[53].udp 	droppedPkBadChecksum:count 	0
attr interpolationmode  none
attr title  "packets dropped (checksum error), count"
scalar scenarioPRJP1.node[53].udp 	droppedPkWrongPort:count 	0
attr interpolationmode  none
attr title  "packets dropped (wrong port), count"
scalar scenarioPRJP1.node[53].udp 	passedUpPk:count 	17
attr interpolationmode  none
attr title  "packets passed up, count"
scalar scenarioPRJP1.node[53].udp 	rcvdPk:count 	17
attr interpolationmode  none
attr source  rcvdPk
attr title  "packets received, count"
scalar scenarioPRJP1.node[53].udp 	rcvdPk:sum(packetBytes) 	8840
attr interpolationmode  none
attr source  rcvdPk
attr title  "packets received, sum(packetBytes)"
scalar scenarioPRJP1.node[53].udp 	sentPk:count 	371
attr interpolationmode  none
attr source  sentPk
attr title  "packets sent, count"
scalar scenarioPRJP1.node[53].udp 	sentPk:sum(packetBytes) 	192920
attr interpolationmode  none
attr source  sentPk
attr title  "packets sent, sum(packetBytes)"
scalar scenarioPRJP1.node[53].networkLayer.arp 	failedARPResolution:count 	30
attr title  "ARP failed resolutions, count"
scalar scenarioPRJP1.node[53].networkLayer.arp 	completedARPResolution:count 	486
attr title  "ARP completed resolutions, count"
scalar scenarioPRJP1.node[53].networkLayer.arp 	initiatedARPResolution:count 	47
attr title  "ARP initiated resolutions, count"
scalar scenarioPRJP1.node[53].networkLayer.arp 	sentReply:count 	13
attr title  "ARP replies sent, count"
scalar scenarioPRJP1.node[53].networkLayer.arp 	sentReq:count 	113
attr title  "ARP request sent, count"
scalar scenarioPRJP1.node[53].mobility 	startTime 	4.9
scalar scenarioPRJP1.node[53].mobility 	totalTime 	156.1
scalar scenarioPRJP1.node[53].mobility 	stopTime 	161.1
scalar scenarioPRJP1.node[53].mobility 	minSpeed 	2.4759671066688e-13
scalar scenarioPRJP1.node[53].mobility 	maxSpeed 	16.449472458366
scalar scenarioPRJP1.node[53].mobility 	totalDistance 	1447.5860974015
scalar scenarioPRJP1.node[53].mobility 	totalCO2Emission 	399.35344593673
scalar scenarioPRJP1.node[53].wlan[0].mgmt 	dataQueueLen:max 	5
attr interpolationmode  sample-hold
attr title  "data queue length, max"
scalar scenarioPRJP1.node[53].wlan[0].mgmt 	dataQueueLen:timeavg 	0
attr interpolationmode  sample-hold
attr title  "data queue length, timeavg"
scalar scenarioPRJP1.node[53].wlan[0].mgmt 	dropPkByQueue:count 	0
attr interpolationmode  none
attr source  dropPkByQueue
attr title  "packets dropped by queue, count"
scalar scenarioPRJP1.node[53].wlan[0].mgmt 	dropPkByQueue:sum(packetBytes) 	0
attr interpolationmode  none
attr source  dropPkByQueue
attr title  "packets dropped by queue, sum(packetBytes)"
scalar scenarioPRJP1.node[53].wlan[0].mac 	"number of received packets" 	111
scalar scenarioPRJP1.node[53].wlan[0].mac 	"number of collisions" 	5704
scalar scenarioPRJP1.node[53].wlan[0].mac 	"number of internal collisions" 	0
scalar scenarioPRJP1.node[53].wlan[0].mac 	"number of retry for AC 0" 	398
scalar scenarioPRJP1.node[53].wlan[0].mac 	"number of retry for AC 1" 	0
scalar scenarioPRJP1.node[53].wlan[0].mac 	"number of retry for AC 2" 	0
scalar scenarioPRJP1.node[53].wlan[0].mac 	"number of retry for AC 3" 	0
scalar scenarioPRJP1.node[53].wlan[0].mac 	"sent and received bits" 	1676416
scalar scenarioPRJP1.node[53].wlan[0].mac 	"sent packet within AC 0" 	45
scalar scenarioPRJP1.node[53].wlan[0].mac 	"sent packet within AC 1" 	0
scalar scenarioPRJP1.node[53].wlan[0].mac 	"sent packet within AC 2" 	0
scalar scenarioPRJP1.node[53].wlan[0].mac 	"sent packet within AC 3" 	0
scalar scenarioPRJP1.node[53].wlan[0].mac 	"sent in TXOP " 	0
scalar scenarioPRJP1.node[53].wlan[0].mac 	"sentWithoutRetry AC 0" 	28
scalar scenarioPRJP1.node[53].wlan[0].mac 	"sentWithoutRetry AC 1" 	0
scalar scenarioPRJP1.node[53].wlan[0].mac 	"sentWithoutRetry AC 2" 	0
scalar scenarioPRJP1.node[53].wlan[0].mac 	"sentWithoutRetry AC 3" 	0
scalar scenarioPRJP1.node[53].wlan[0].mac 	"numGivenUp AC 0" 	60
scalar scenarioPRJP1.node[53].wlan[0].mac 	"numGivenUp AC 1" 	0
scalar scenarioPRJP1.node[53].wlan[0].mac 	"numGivenUp AC 2" 	0
scalar scenarioPRJP1.node[53].wlan[0].mac 	"numGivenUp AC 3" 	0
scalar scenarioPRJP1.node[53].wlan[0].mac 	"numDropped AC 0" 	0
scalar scenarioPRJP1.node[53].wlan[0].mac 	"numDropped AC 1" 	0
scalar scenarioPRJP1.node[53].wlan[0].mac 	"numDropped AC 2" 	0
scalar scenarioPRJP1.node[53].wlan[0].mac 	"numDropped AC 3" 	0
scalar scenarioPRJP1.node[53].wlan[0].mac 	rcvdPkFromLL:count 	21493
attr interpolationmode  none
attr source  packetReceivedFromLower
attr title  "packets received from lower layer, count"
scalar scenarioPRJP1.node[53].wlan[0].mac 	rcvdPkFromLL:sum(packetBytes) 	3218738
attr interpolationmode  none
attr source  packetReceivedFromLower
attr title  "packets received from lower layer, sum(packetBytes)"
scalar scenarioPRJP1.node[53].wlan[0].mac 	sentDownPk:count 	2873
attr interpolationmode  none
attr source  packetSentToLower
attr title  "packets sent to lower layer, count"
scalar scenarioPRJP1.node[53].wlan[0].mac 	sentDownPk:sum(packetBytes) 	398146
attr interpolationmode  none
attr source  packetSentToLower
attr title  "packets sent to lower layer, sum(packetBytes)"
scalar scenarioPRJP1.node[53].wlan[0].mac 	rcvdPkFromHL:count 	2364
attr interpolationmode  none
attr source  packetReceivedFromUpper
attr title  "packets received from higher layer, count"
scalar scenarioPRJP1.node[53].wlan[0].mac 	rcvdPkFromHL:sum(packetBytes) 	234152
attr interpolationmode  none
attr source  packetReceivedFromUpper
attr title  "packets received from higher layer, sum(packetBytes)"
scalar scenarioPRJP1.node[53].wlan[0].mac 	passedUpPk:count 	11933
attr interpolationmode  none
attr source  packetSentToUpper
attr title  "packets passed to higher layer, count"
scalar scenarioPRJP1.node[53].wlan[0].mac 	passedUpPk:sum(packetBytes) 	1047516
attr interpolationmode  none
attr source  packetSentToUpper
attr title  "packets passed to higher layer, sum(packetBytes)"
statistic scenarioPRJP1.node[53].wlan[0].radio 	radioChannel:histogram
field count 1
field mean 3
field stddev -nan
field sum 3
field sqrsum 9
field min 3
field max 3
attr interpolationmode  sample-hold
attr source  radioChannelChanged
attr title  "Radio channel, histogram"
bin	-INF	0
bin	2	0
bin	3	1
bin	4	0
scalar scenarioPRJP1.node[53].wlan[0].radio 	transmissionState:count 	11492
attr interpolationmode  sample-hold
attr source  transmissionStateChanged
attr title  "Radio transmission state, count"
scalar scenarioPRJP1.node[53].wlan[0].radio 	receptionState:count 	50852
attr interpolationmode  sample-hold
attr source  receptionStateChanged
attr title  "Radio reception state, count"
scalar scenarioPRJP1.node[53].wlan[0].radio 	radioMode:count 	5748
attr interpolationmode  sample-hold
attr source  radioModeChanged
attr title  "Radio mode, count"
statistic scenarioPRJP1.node[53].wlan[0].radio 	symbolErrorRate:histogram
field count 0
field mean -nan
field stddev -nan
field sum 0
field sqrsum 0
field min -nan
field max -nan
attr source  symbolErrorRate
attr title  "Symbol error rate, histogram"
bin	-INF	0
bin	-0.5	0
bin	-0.46666666666667	0
bin	-0.43333333333333	0
bin	-0.4	0
bin	-0.36666666666667	0
bin	-0.33333333333333	0
bin	-0.3	0
bin	-0.26666666666667	0
bin	-0.23333333333333	0
bin	-0.2	0
bin	-0.16666666666667	0
bin	-0.13333333333333	0
bin	-0.1	0
bin	-0.066666666666667	0
bin	-0.033333333333333	0
bin	0	0
bin	0.033333333333333	0
bin	0.066666666666667	0
bin	0.1	0
bin	0.13333333333333	0
bin	0.16666666666667	0
bin	0.2	0
bin	0.23333333333333	0
bin	0.26666666666667	0
bin	0.3	0
bin	0.33333333333333	0
bin	0.36666666666667	0
bin	0.4	0
bin	0.43333333333333	0
bin	0.46666666666667	0
bin	0.5	0
statistic scenarioPRJP1.node[53].wlan[0].radio 	bitErrorRate:histogram
field count 0
field mean -nan
field stddev -nan
field sum 0
field sqrsum 0
field min -nan
field max -nan
attr source  bitErrorRate
attr title  "Bit error rate, histogram"
bin	-INF	0
bin	-0.5	0
bin	-0.46666666666667	0
bin	-0.43333333333333	0
bin	-0.4	0
bin	-0.36666666666667	0
bin	-0.33333333333333	0
bin	-0.3	0
bin	-0.26666666666667	0
bin	-0.23333333333333	0
bin	-0.2	0
bin	-0.16666666666667	0
bin	-0.13333333333333	0
bin	-0.1	0
bin	-0.066666666666667	0
bin	-0.033333333333333	0
bin	0	0
bin	0.033333333333333	0
bin	0.066666666666667	0
bin	0.1	0
bin	0.13333333333333	0
bin	0.16666666666667	0
bin	0.2	0
bin	0.23333333333333	0
bin	0.26666666666667	0
bin	0.3	0
bin	0.33333333333333	0
bin	0.36666666666667	0
bin	0.4	0
bin	0.43333333333333	0
bin	0.46666666666667	0
bin	0.5	0
statistic scenarioPRJP1.node[53].wlan[0].radio 	packetErrorRate:histogram
field count 21493
field mean 0.21845040213551
field stddev 0.40269358525974
field sum 4695.1544930986
field sqrsum 4510.8467477177
field min 0
field max 1
attr source  packetErrorRate
attr title  "Packet error rate, histogram"
bin	-INF	0
bin	-0.5	0
bin	-0.43333333333333	0
bin	-0.36666666666667	0
bin	-0.3	0
bin	-0.23333333333333	0
bin	-0.16666666666667	0
bin	-0.1	0
bin	-0.033333333333333	16058
bin	0.033333333333333	293
bin	0.1	145
bin	0.16666666666667	103
bin	0.23333333333333	84
bin	0.3	62
bin	0.36666666666667	51
bin	0.43333333333333	52
bin	0.5	56
bin	0.56666666666667	52
bin	0.63333333333333	41
bin	0.7	53
bin	0.76666666666667	63
bin	0.83333333333333	66
bin	0.9	90
bin	0.96666666666667	4224
bin	1.0333333333333	0
bin	1.1	0
bin	1.1666666666667	0
bin	1.2333333333333	0
bin	1.3	0
bin	1.3666666666667	0
bin	1.4333333333333	0
bin	1.5	0
statistic scenarioPRJP1.node[53].wlan[0].radio 	minSNIR:histogram
field count 21493
field mean 1211.646959899
field stddev 11685.407562487
field sum 26041928.109109
field sqrsum 2966259355904.7
field min 0.00026555958087835
field max 659993.213631
attr source  minSNIR
attr title  "Min SNIR, histogram"
bin	-INF	0
bin	-465.60082067379	0
bin	-403.51882609268	0
bin	-341.43683151158	0
bin	-279.35483693048	0
bin	-217.27284234938	0
bin	-155.19084776828	0
bin	-93.108853187177	0
bin	-31.026858606076	13455
bin	31.055135975025	1858
bin	93.137130556127	1209
bin	155.21912513723	965
bin	217.30111971833	584
bin	279.38311429943	397
bin	341.46510888053	310
bin	403.54710346163	212
bin	465.62909804274	173
bin	527.71109262384	169
bin	589.79308720494	139
bin	651.87508178604	110
bin	713.95707636714	97
bin	776.03907094824	81
bin	838.12106552934	63
bin	900.20306011045	57
bin	962.28505469155	49
bin	1024.3670492726	57
bin	1086.4490438537	42
bin	1148.5310384349	40
bin	1210.613033016	29
bin	1272.6950275971	36
bin	1334.7770221782	35
bin	1396.8590167593	1326
scalar scenarioPRJP1.node[53].lo0.lo 	droppedPkBitError:count 	0
attr interpolationmode  none
attr source  dropPkBitError
attr title  "packets dropped/bit error, count"
scalar scenarioPRJP1.node[53].lo0.lo 	droppedPkBitError:sum(packetBytes) 	0
attr interpolationmode  none
attr source  dropPkBitError
attr title  "packets dropped/bit error, sum(packetBytes)"
scalar scenarioPRJP1.node[53].lo0.lo 	rcvdPkFromHL:count 	0
attr interpolationmode  none
attr source  packetReceivedFromUpper
attr title  "packets received from higher layer, count"
scalar scenarioPRJP1.node[53].lo0.lo 	rcvdPkFromHL:sum(packetBytes) 	0
attr interpolationmode  none
attr source  packetReceivedFromUpper
attr title  "packets received from higher layer, sum(packetBytes)"
scalar scenarioPRJP1.node[53].lo0.lo 	passedUpPk:count 	0
attr interpolationmode  none
attr source  packetSentToUpper
attr title  "packets passed to higher layer, count"
scalar scenarioPRJP1.node[53].lo0.lo 	passedUpPk:sum(packetBytes) 	0
attr interpolationmode  none
attr source  packetSentToUpper
attr title  "packets passed to higher layer, sum(packetBytes)"
scalar scenarioPRJP1.node[89].app 	"Total sent" 	383
scalar scenarioPRJP1.node[89].app 	"Total received" 	18
scalar scenarioPRJP1.node[89].app 	"Total deleted" 	0
scalar scenarioPRJP1.node[89].app 	dropPk:count 	0
attr interpolationmode  none
attr source  dropPk
attr title  "packets dropped, count"
scalar scenarioPRJP1.node[89].app 	dropPk:sum(packetBytes) 	0
attr interpolationmode  none
attr source  dropPk
attr title  "packets dropped, sum(packetBytes)"
scalar scenarioPRJP1.node[89].app 	outOfOrderPk:count 	0
attr interpolationmode  none
attr source  outOfOrderPk
attr title  "packets received out of order, count"
scalar scenarioPRJP1.node[89].app 	outOfOrderPk:sum(packetBytes) 	0
attr interpolationmode  none
attr source  outOfOrderPk
attr title  "packets received out of order, sum(packetBytes)"
scalar scenarioPRJP1.node[89].app 	rcvdPk:count 	18
attr interpolationmode  none
attr source  rcvdPk
attr title  "packets received, count"
scalar scenarioPRJP1.node[89].app 	rcvdPk:sum(packetBytes) 	9216
attr interpolationmode  none
attr source  rcvdPk
attr title  "packets received, sum(packetBytes)"
statistic scenarioPRJP1.node[89].app 	endToEndDelay:histogram
field count 18
field mean 1.5184975589284
field stddev 3.2002825223956
field sum 27.332956060712
field sqrsum 215.61576685006
field min 0.000958376833
field max 12.369551051037
attr interpolationmode  none
attr source  messageAge(rcvdPk)
attr title  "delay, histogram"
attr unit  s
bin	-INF	0
bin	-6.183337960269	0
bin	-5.3587651153221	0
bin	-4.5341922703751	0
bin	-3.7096194254282	0
bin	-2.8850465804813	0
bin	-2.0604737355343	0
bin	-1.2359008905874	0
bin	-0.41132804564047	12
bin	0.41324479930647	1
bin	1.2378176442534	1
bin	2.0623904892003	2
bin	2.8869633341473	0
bin	3.7115361790942	0
bin	4.5361090240411	0
bin	5.3606818689881	0
bin	6.185254713935	1
bin	7.0098275588819	0
bin	7.8344004038289	0
bin	8.6589732487758	0
bin	9.4835460937227	0
bin	10.30811893867	0
bin	11.132691783617	0
bin	11.957264628564	1
bin	12.78183747351	0
bin	13.606410318457	0
bin	14.430983163404	0
bin	15.255556008351	0
bin	16.080128853298	0
bin	16.904701698245	0
bin	17.729274543192	0
bin	18.553847388139	0
scalar scenarioPRJP1.node[89].app 	sentPk:count 	383
attr interpolationmode  none
attr source  sentPk
attr title  "packets sent, count"
scalar scenarioPRJP1.node[89].app 	sentPk:sum(packetBytes) 	196096
attr interpolationmode  none
attr source  sentPk
attr title  "packets sent, sum(packetBytes)"
scalar scenarioPRJP1.node[89].udp 	droppedPkBadChecksum:count 	0
attr interpolationmode  none
attr title  "packets dropped (checksum error), count"
scalar scenarioPRJP1.node[89].udp 	droppedPkWrongPort:count 	0
attr interpolationmode  none
attr title  "packets dropped (wrong port), count"
scalar scenarioPRJP1.node[89].udp 	passedUpPk:count 	18
attr interpolationmode  none
attr title  "packets passed up, count"
scalar scenarioPRJP1.node[89].udp 	rcvdPk:count 	18
attr interpolationmode  none
attr source  rcvdPk
attr title  "packets received, count"
scalar scenarioPRJP1.node[89].udp 	rcvdPk:sum(packetBytes) 	9360
attr interpolationmode  none
attr source  rcvdPk
attr title  "packets received, sum(packetBytes)"
scalar scenarioPRJP1.node[89].udp 	sentPk:count 	383
attr interpolationmode  none
attr source  sentPk
attr title  "packets sent, count"
scalar scenarioPRJP1.node[89].udp 	sentPk:sum(packetBytes) 	199160
attr interpolationmode  none
attr source  sentPk
attr title  "packets sent, sum(packetBytes)"
scalar scenarioPRJP1.node[89].networkLayer.arp 	failedARPResolution:count 	40
attr title  "ARP failed resolutions, count"
scalar scenarioPRJP1.node[89].networkLayer.arp 	completedARPResolution:count 	585
attr title  "ARP completed resolutions, count"
scalar scenarioPRJP1.node[89].networkLayer.arp 	initiatedARPResolution:count 	60
attr title  "ARP initiated resolutions, count"
scalar scenarioPRJP1.node[89].networkLayer.arp 	sentReply:count 	11
attr title  "ARP replies sent, count"
scalar scenarioPRJP1.node[89].networkLayer.arp 	sentReq:count 	151
attr title  "ARP request sent, count"
scalar scenarioPRJP1.node[89].mobility 	startTime 	9.7
scalar scenarioPRJP1.node[89].mobility 	totalTime 	153
scalar scenarioPRJP1.node[89].mobility 	stopTime 	162.8
scalar scenarioPRJP1.node[89].mobility 	minSpeed 	2.4782406456365e-13
scalar scenarioPRJP1.node[89].mobility 	maxSpeed 	15.709123148233
scalar scenarioPRJP1.node[89].mobility 	totalDistance 	1484.7984017526
scalar scenarioPRJP1.node[89].mobility 	totalCO2Emission 	406.4396775028
scalar scenarioPRJP1.node[89].wlan[0].mgmt 	dataQueueLen:max 	0
attr interpolationmode  sample-hold
attr title  "data queue length, max"
scalar scenarioPRJP1.node[89].wlan[0].mgmt 	dataQueueLen:timeavg 	0
attr interpolationmode  sample-hold
attr title  "data queue length, timeavg"
scalar scenarioPRJP1.node[89].wlan[0].mgmt 	dropPkByQueue:count 	0
attr interpolationmode  none
attr source  dropPkByQueue
attr title  "packets dropped by queue, count"
scalar scenarioPRJP1.node[89].wlan[0].mgmt 	dropPkByQueue:sum(packetBytes) 	0
attr interpolationmode  none
attr source  dropPkByQueue
attr title  "packets dropped by queue, sum(packetBytes)"
scalar scenarioPRJP1.node[89].wlan[0].mac 	"number of received packets" 	105
scalar scenarioPRJP1.node[89].wlan[0].mac 	"number of collisions" 	5524
scalar scenarioPRJP1.node[89].wlan[0].mac 	"number of internal collisions" 	0
scalar scenarioPRJP1.node[89].wlan[0].mac 	"number of retry for AC 0" 	432
scalar scenarioPRJP1.node[89].wlan[0].mac 	"number of retry for AC 1" 	0
scalar scenarioPRJP1.node[89].wlan[0].mac 	"number of retry for AC 2" 	0
scalar scenarioPRJP1.node[89].wlan[0].mac 	"number of retry for AC 3" 	0
scalar scenarioPRJP1.node[89].wlan[0].mac 	"sent and received bits" 	1697472
scalar scenarioPRJP1.node[89].wlan[0].mac 	"sent packet within AC 0" 	44
scalar scenarioPRJP1.node[89].wlan[0].mac 	"sent packet within AC 1" 	0
scalar scenarioPRJP1.node[89].wlan[0].mac 	"sent packet within AC 2" 	0
scalar scenarioPRJP1.node[89].wlan[0].mac 	"sent packet within AC 3" 	0
scalar scenarioPRJP1.node[89].wlan[0].mac 	"sent in TXOP " 	0
scalar scenarioPRJP1.node[89].wlan[0].mac 	"sentWithoutRetry AC 0" 	29
scalar scenarioPRJP1.node[89].wlan[0].mac 	"sentWithoutRetry AC 1" 	0
scalar scenarioPRJP1.node[89].wlan[0].mac 	"sentWithoutRetry AC 2" 	0
scalar scenarioPRJP1.node[89].wlan[0].mac 	"sentWithoutRetry AC 3" 	0
scalar scenarioPRJP1.node[89].wlan[0].mac 	"numGivenUp AC 0" 	67
scalar scenarioPRJP1.node[89].wlan[0].mac 	"numGivenUp AC 1" 	0
scalar scenarioPRJP1.node[89].wlan[0].mac 	"numGivenUp AC 2" 	0
scalar scenarioPRJP1.node[89].wlan[0].mac 	"numGivenUp AC 3" 	0
scalar scenarioPRJP1.node[89].wlan[0].mac 	"numDropped AC 0" 	0
scalar scenarioPRJP1.node[89].wlan[0].mac 	"numDropped AC 1" 	0
scalar scenarioPRJP1.node[89].wlan[0].mac 	"numDropped AC 2" 	0
scalar scenarioPRJP1.node[89].wlan[0].mac 	"numDropped AC 3" 	0
scalar scenarioPRJP1.node[89].wlan[0].mac 	rcvdPkFromLL:count 	19765
attr interpolationmode  none
attr source  packetReceivedFromLower
attr title  "packets received from lower layer, count"
scalar scenarioPRJP1.node[89].wlan[0].mac 	rcvdPkFromLL:sum(packetBytes) 	2910500
attr interpolationmode  none
attr source  packetReceivedFromLower
attr title  "packets received from lower layer, sum(packetBytes)"
scalar scenarioPRJP1.node[89].wlan[0].mac 	sentDownPk:count 	2925
attr interpolationmode  none
attr source  packetSentToLower
attr title  "packets sent to lower layer, count"
scalar scenarioPRJP1.node[89].wlan[0].mac 	sentDownPk:sum(packetBytes) 	428746
attr interpolationmode  none
attr source  packetSentToLower
attr title  "packets sent to lower layer, sum(packetBytes)"
scalar scenarioPRJP1.node[89].wlan[0].mac 	rcvdPkFromHL:count 	2388
attr interpolationmode  none
attr source  packetReceivedFromUpper
attr title  "packets received from higher layer, count"
scalar scenarioPRJP1.node[89].wlan[0].mac 	rcvdPkFromHL:sum(packetBytes) 	240876
attr interpolationmode  none
attr source  packetReceivedFromUpper
attr title  "packets received from higher layer, sum(packetBytes)"
scalar scenarioPRJP1.node[89].wlan[0].mac 	passedUpPk:count 	11407
attr interpolationmode  none
attr source  packetSentToUpper
attr title  "packets passed to higher layer, count"
scalar scenarioPRJP1.node[89].wlan[0].mac 	passedUpPk:sum(packetBytes) 	1005620
attr interpolationmode  none
attr source  packetSentToUpper
attr title  "packets passed to higher layer, sum(packetBytes)"
statistic scenarioPRJP1.node[89].wlan[0].radio 	radioChannel:histogram
field count 1
field mean 3
field stddev -nan
field sum 3
field sqrsum 9
field min 3
field max 3
attr interpolationmode  sample-hold
attr source  radioChannelChanged
attr title  "Radio channel, histogram"
bin	-INF	0
bin	2	0
bin	3	1
bin	4	0
scalar scenarioPRJP1.node[89].wlan[0].radio 	transmissionState:count 	11700
attr interpolationmode  sample-hold
attr source  transmissionStateChanged
attr title  "Radio transmission state, count"
scalar scenarioPRJP1.node[89].wlan[0].radio 	receptionState:count 	47151
attr interpolationmode  sample-hold
attr source  receptionStateChanged
attr title  "Radio reception state, count"
scalar scenarioPRJP1.node[89].wlan[0].radio 	radioMode:count 	5852
attr interpolationmode  sample-hold
attr source  radioModeChanged
attr title  "Radio mode, count"
statistic scenarioPRJP1.node[89].wlan[0].radio 	symbolErrorRate:histogram
field count 0
field mean -nan
field stddev -nan
field sum 0
field sqrsum 0
field min -nan
field max -nan
attr source  symbolErrorRate
attr title  "Symbol error rate, histogram"
bin	-INF	0
bin	-0.5	0
bin	-0.46666666666667	0
bin	-0.43333333333333	0
bin	-0.4	0
bin	-0.36666666666667	0
bin	-0.33333333333333	0
bin	-0.3	0
bin	-0.26666666666667	0
bin	-0.23333333333333	0
bin	-0.2	0
bin	-0.16666666666667	0
bin	-0.13333333333333	0
bin	-0.1	0
bin	-0.066666666666667	0
bin	-0.033333333333333	0
bin	0	0
bin	0.033333333333333	0
bin	0.066666666666667	0
bin	0.1	0
bin	0.13333333333333	0
bin	0.16666666666667	0
bin	0.2	0
bin	0.23333333333333	0
bin	0.26666666666667	0
bin	0.3	0
bin	0.33333333333333	0
bin	0.36666666666667	0
bin	0.4	0
bin	0.43333333333333	0
bin	0.46666666666667	0
bin	0.5	0
statistic scenarioPRJP1.node[89].wlan[0].radio 	bitErrorRate:histogram
field count 0
field mean -nan
field stddev -nan
field sum 0
field sqrsum 0
field min -nan
field max -nan
attr source  bitErrorRate
attr title  "Bit error rate, histogram"
bin	-INF	0
bin	-0.5	0
bin	-0.46666666666667	0
bin	-0.43333333333333	0
bin	-0.4	0
bin	-0.36666666666667	0
bin	-0.33333333333333	0
bin	-0.3	0
bin	-0.26666666666667	0
bin	-0.23333333333333	0
bin	-0.2	0
bin	-0.16666666666667	0
bin	-0.13333333333333	0
bin	-0.1	0
bin	-0.066666666666667	0
bin	-0.033333333333333	0
bin	0	0
bin	0.033333333333333	0
bin	0.066666666666667	0
bin	0.1	0
bin	0.13333333333333	0
bin	0.16666666666667	0
bin	0.2	0
bin	0.23333333333333	0
bin	0.26666666666667	0
bin	0.3	0
bin	0.33333333333333	0
bin	0.36666666666667	0
bin	0.4	0
bin	0.43333333333333	0
bin	0.46666666666667	0
bin	0.5	0
statistic scenarioPRJP1.node[89].wlan[0].radio 	packetErrorRate:histogram
field count 19765
field mean 0.22850305437307
field stddev 0.40875354763682
field sum 4516.3628696837
field sqrsum 4334.161211295
field min 0
field max 1
attr source  packetErrorRate
attr title  "Packet error rate, histogram"
bin	-INF	0
bin	-0.5	0
bin	-0.43333333333333	0
bin	-0.36666666666667	0
bin	-0.3	0
bin	-0.23333333333333	0
bin	-0.16666666666667	0
bin	-0.1	0
bin	-0.033333333333333	14498
bin	0.033333333333333	295
bin	0.1	149
bin	0.16666666666667	118
bin	0.23333333333333	66
bin	0.3	79
bin	0.36666666666667	56
bin	0.43333333333333	63
bin	0.5	37
bin	0.56666666666667	46
bin	0.63333333333333	45
bin	0.7	52
bin	0.76666666666667	52
bin	0.83333333333333	54
bin	0.9	89
bin	0.96666666666667	4066
bin	1.0333333333333	0
bin	1.1	0
bin	1.1666666666667	0
bin	1.2333333333333	0
bin	1.3	0
bin	1.3666666666667	0
bin	1.4333333333333	0
bin	1.5	0
statistic scenarioPRJP1.node[89].wlan[0].radio 	minSNIR:histogram
field count 19765
field mean 1360.719315389
field stddev 14383.87620383
field sum 26894617.268664
field sqrsum 4125686487002.7
field min 0.00019247605521846
field max 586418.63456956
attr source  minSNIR
attr title  "Min SNIR, histogram"
bin	-INF	0
bin	-99.28820866697	0
bin	-86.03936196012	0
bin	-72.79051525327	0
bin	-59.541668546421	0
bin	-46.292821839571	0
bin	-33.043975132721	0
bin	-19.795128425871	0
bin	-6.5462817190215	9294
bin	6.7025649878283	3173
bin	19.951411694678	949
bin	33.200258401528	462
bin	46.449105108378	310
bin	59.697951815227	191
bin	72.946798522077	147
bin	86.195645228927	138
bin	99.444491935777	114
bin	112.69333864263	92
bin	125.94218534948	399
bin	139.19103205633	296
bin	152.43987876318	244
bin	165.68872547003	213
bin	178.93757217688	170
bin	192.18641888373	137
bin	205.43526559058	133
bin	218.68411229743	124
bin	231.93295900427	98
bin	245.18180571112	87
bin	258.43065241797	81
bin	271.67949912482	74
bin	284.92834583167	91
bin	298.17719253852	2748
scalar scenarioPRJP1.node[89].lo0.lo 	droppedPkBitError:count 	0
attr interpolationmode  none
attr source  dropPkBitError
attr title  "packets dropped/bit error, count"
scalar scenarioPRJP1.node[89].lo0.lo 	droppedPkBitError:sum(packetBytes) 	0
attr interpolationmode  none
attr source  dropPkBitError
attr title  "packets dropped/bit error, sum(packetBytes)"
scalar scenarioPRJP1.node[89].lo0.lo 	rcvdPkFromHL:count 	0
attr interpolationmode  none
attr source  packetReceivedFromUpper
attr title  "packets received from higher layer, count"
scalar scenarioPRJP1.node[89].lo0.lo 	rcvdPkFromHL:sum(packetBytes) 	0
attr interpolationmode  none
attr source  packetReceivedFromUpper
attr title  "packets received from higher layer, sum(packetBytes)"
scalar scenarioPRJP1.node[89].lo0.lo 	passedUpPk:count 	0
attr interpolationmode  none
attr source  packetSentToUpper
attr title  "packets passed to higher layer, count"
scalar scenarioPRJP1.node[89].lo0.lo 	passedUpPk:sum(packetBytes) 	0
attr interpolationmode  none
attr source  packetSentToUpper
attr title  "packets passed to higher layer, sum(packetBytes)"
scalar scenarioPRJP1.node[31].app 	"Total sent" 	627
scalar scenarioPRJP1.node[31].app 	"Total received" 	25
scalar scenarioPRJP1.node[31].app 	"Total deleted" 	0
scalar scenarioPRJP1.node[31].app 	dropPk:count 	0
attr interpolationmode  none
attr source  dropPk
attr title  "packets dropped, count"
scalar scenarioPRJP1.node[31].app 	dropPk:sum(packetBytes) 	0
attr interpolationmode  none
attr source  dropPk
attr title  "packets dropped, sum(packetBytes)"
scalar scenarioPRJP1.node[31].app 	outOfOrderPk:count 	0
attr interpolationmode  none
attr source  outOfOrderPk
attr title  "packets received out of order, count"
scalar scenarioPRJP1.node[31].app 	outOfOrderPk:sum(packetBytes) 	0
attr interpolationmode  none
attr source  outOfOrderPk
attr title  "packets received out of order, sum(packetBytes)"
scalar scenarioPRJP1.node[31].app 	rcvdPk:count 	25
attr interpolationmode  none
attr source  rcvdPk
attr title  "packets received, count"
scalar scenarioPRJP1.node[31].app 	rcvdPk:sum(packetBytes) 	12800
attr interpolationmode  none
attr source  rcvdPk
attr title  "packets received, sum(packetBytes)"
statistic scenarioPRJP1.node[31].app 	endToEndDelay:histogram
field count 25
field mean 0.45870167397104
field stddev 0.88701361980931
field sum 11.467541849276
field sqrsum 24.143216524049
field min 0.001113122226
field max 2.86655692631
attr interpolationmode  none
attr source  messageAge(rcvdPk)
attr title  "delay, histogram"
attr unit  s
bin	-INF	0
bin	-1.431608779816	0
bin	-1.2405791928771	0
bin	-1.0495496059381	0
bin	-0.8585200189992	0
bin	-0.66749043206027	0
bin	-0.47646084512133	0
bin	-0.2854312581824	0
bin	-0.094401671243467	19
bin	0.096627915695467	0
bin	0.2876575026344	0
bin	0.47868708957333	1
bin	0.66971667651227	0
bin	0.8607462634512	0
bin	1.0517758503901	0
bin	1.2428054373291	0
bin	1.433835024268	1
bin	1.6248646112069	0
bin	1.8158941981459	1
bin	2.0069237850848	1
bin	2.1979533720237	1
bin	2.3889829589627	0
bin	2.5800125459016	0
bin	2.7710421328405	1
bin	2.9620717197795	0
bin	3.1531013067184	0
bin	3.3441308936573	0
bin	3.5351604805963	0
bin	3.7261900675352	0
bin	3.9172196544741	0
bin	4.1082492414131	0
bin	4.299278828352	0
scalar scenarioPRJP1.node[31].app 	sentPk:count 	627
attr interpolationmode  none
attr source  sentPk
attr title  "packets sent, count"
scalar scenarioPRJP1.node[31].app 	sentPk:sum(packetBytes) 	321024
attr interpolationmode  none
attr source  sentPk
attr title  "packets sent, sum(packetBytes)"
scalar scenarioPRJP1.node[31].udp 	droppedPkBadChecksum:count 	0
attr interpolationmode  none
attr title  "packets dropped (checksum error), count"
scalar scenarioPRJP1.node[31].udp 	droppedPkWrongPort:count 	0
attr interpolationmode  none
attr title  "packets dropped (wrong port), count"
scalar scenarioPRJP1.node[31].udp 	passedUpPk:count 	25
attr interpolationmode  none
attr title  "packets passed up, count"
scalar scenarioPRJP1.node[31].udp 	rcvdPk:count 	25
attr interpolationmode  none
attr source  rcvdPk
attr title  "packets received, count"
scalar scenarioPRJP1.node[31].udp 	rcvdPk:sum(packetBytes) 	13000
attr interpolationmode  none
attr source  rcvdPk
attr title  "packets received, sum(packetBytes)"
scalar scenarioPRJP1.node[31].udp 	sentPk:count 	627
attr interpolationmode  none
attr source  sentPk
attr title  "packets sent, count"
scalar scenarioPRJP1.node[31].udp 	sentPk:sum(packetBytes) 	326040
attr interpolationmode  none
attr source  sentPk
attr title  "packets sent, sum(packetBytes)"
scalar scenarioPRJP1.node[31].networkLayer.arp 	failedARPResolution:count 	68
attr title  "ARP failed resolutions, count"
scalar scenarioPRJP1.node[31].networkLayer.arp 	completedARPResolution:count 	651
attr title  "ARP completed resolutions, count"
scalar scenarioPRJP1.node[31].networkLayer.arp 	initiatedARPResolution:count 	95
attr title  "ARP initiated resolutions, count"
scalar scenarioPRJP1.node[31].networkLayer.arp 	sentReply:count 	13
attr title  "ARP replies sent, count"
scalar scenarioPRJP1.node[31].networkLayer.arp 	sentReq:count 	248
attr title  "ARP request sent, count"
scalar scenarioPRJP1.node[31].mobility 	startTime 	2.5
scalar scenarioPRJP1.node[31].mobility 	totalTime 	246.9
scalar scenarioPRJP1.node[31].mobility 	stopTime 	249.5
scalar scenarioPRJP1.node[31].mobility 	minSpeed 	2.4760837806752e-13
scalar scenarioPRJP1.node[31].mobility 	maxSpeed 	15.088878832968
scalar scenarioPRJP1.node[31].mobility 	totalDistance 	2234.2653901309
scalar scenarioPRJP1.node[31].mobility 	totalCO2Emission 	600.76256658723
scalar scenarioPRJP1.node[31].wlan[0].mgmt 	dataQueueLen:max 	2
attr interpolationmode  sample-hold
attr title  "data queue length, max"
scalar scenarioPRJP1.node[31].wlan[0].mgmt 	dataQueueLen:timeavg 	0
attr interpolationmode  sample-hold
attr title  "data queue length, timeavg"
scalar scenarioPRJP1.node[31].wlan[0].mgmt 	dropPkByQueue:count 	0
attr interpolationmode  none
attr source  dropPkByQueue
attr title  "packets dropped by queue, count"
scalar scenarioPRJP1.node[31].wlan[0].mgmt 	dropPkByQueue:sum(packetBytes) 	0
attr interpolationmode  none
attr source  dropPkByQueue
attr title  "packets dropped by queue, sum(packetBytes)"
scalar scenarioPRJP1.node[31].wlan[0].mac 	"number of received packets" 	183
scalar scenarioPRJP1.node[31].wlan[0].mac 	"number of collisions" 	7653
scalar scenarioPRJP1.node[31].wlan[0].mac 	"number of internal collisions" 	0
scalar scenarioPRJP1.node[31].wlan[0].mac 	"number of retry for AC 0" 	735
scalar scenarioPRJP1.node[31].wlan[0].mac 	"number of retry for AC 1" 	0
scalar scenarioPRJP1.node[31].wlan[0].mac 	"number of retry for AC 2" 	0
scalar scenarioPRJP1.node[31].wlan[0].mac 	"number of retry for AC 3" 	0
scalar scenarioPRJP1.node[31].wlan[0].mac 	"sent and received bits" 	2648800
scalar scenarioPRJP1.node[31].wlan[0].mac 	"sent packet within AC 0" 	82
scalar scenarioPRJP1.node[31].wlan[0].mac 	"sent packet within AC 1" 	0
scalar scenarioPRJP1.node[31].wlan[0].mac 	"sent packet within AC 2" 	0
scalar scenarioPRJP1.node[31].wlan[0].mac 	"sent packet within AC 3" 	0
scalar scenarioPRJP1.node[31].wlan[0].mac 	"sent in TXOP " 	0
scalar scenarioPRJP1.node[31].wlan[0].mac 	"sentWithoutRetry AC 0" 	62
scalar scenarioPRJP1.node[31].wlan[0].mac 	"sentWithoutRetry AC 1" 	0
scalar scenarioPRJP1.node[31].wlan[0].mac 	"sentWithoutRetry AC 2" 	0
scalar scenarioPRJP1.node[31].wlan[0].mac 	"sentWithoutRetry AC 3" 	0
scalar scenarioPRJP1.node[31].wlan[0].mac 	"numGivenUp AC 0" 	115
scalar scenarioPRJP1.node[31].wlan[0].mac 	"numGivenUp AC 1" 	0
scalar scenarioPRJP1.node[31].wlan[0].mac 	"numGivenUp AC 2" 	0
scalar scenarioPRJP1.node[31].wlan[0].mac 	"numGivenUp AC 3" 	0
scalar scenarioPRJP1.node[31].wlan[0].mac 	"numDropped AC 0" 	0
scalar scenarioPRJP1.node[31].wlan[0].mac 	"numDropped AC 1" 	0
scalar scenarioPRJP1.node[31].wlan[0].mac 	"numDropped AC 2" 	0
scalar scenarioPRJP1.node[31].wlan[0].mac 	"numDropped AC 3" 	0
scalar scenarioPRJP1.node[31].wlan[0].mac 	rcvdPkFromLL:count 	30004
attr interpolationmode  none
attr source  packetReceivedFromLower
attr title  "packets received from lower layer, count"
scalar scenarioPRJP1.node[31].wlan[0].mac 	rcvdPkFromLL:sum(packetBytes) 	4688248
attr interpolationmode  none
attr source  packetReceivedFromLower
attr title  "packets received from lower layer, sum(packetBytes)"
scalar scenarioPRJP1.node[31].wlan[0].mac 	sentDownPk:count 	4613
attr interpolationmode  none
attr source  packetSentToLower
attr title  "packets sent to lower layer, count"
scalar scenarioPRJP1.node[31].wlan[0].mac 	sentDownPk:sum(packetBytes) 	699474
attr interpolationmode  none
attr source  packetSentToLower
attr title  "packets sent to lower layer, sum(packetBytes)"
scalar scenarioPRJP1.node[31].wlan[0].mac 	rcvdPkFromHL:count 	3695
attr interpolationmode  none
attr source  packetReceivedFromUpper
attr title  "packets received from higher layer, count"
scalar scenarioPRJP1.node[31].wlan[0].mac 	rcvdPkFromHL:sum(packetBytes) 	380432
attr interpolationmode  none
attr source  packetReceivedFromUpper
attr title  "packets received from higher layer, sum(packetBytes)"
scalar scenarioPRJP1.node[31].wlan[0].mac 	passedUpPk:count 	17267
attr interpolationmode  none
attr source  packetSentToUpper
attr title  "packets passed to higher layer, count"
scalar scenarioPRJP1.node[31].wlan[0].mac 	passedUpPk:sum(packetBytes) 	1535384
attr interpolationmode  none
attr source  packetSentToUpper
attr title  "packets passed to higher layer, sum(packetBytes)"
statistic scenarioPRJP1.node[31].wlan[0].radio 	radioChannel:histogram
field count 1
field mean 3
field stddev -nan
field sum 3
field sqrsum 9
field min 3
field max 3
attr interpolationmode  sample-hold
attr source  radioChannelChanged
attr title  "Radio channel, histogram"
bin	-INF	0
bin	2	0
bin	3	1
bin	4	0
scalar scenarioPRJP1.node[31].wlan[0].radio 	transmissionState:count 	18452
attr interpolationmode  sample-hold
attr source  transmissionStateChanged
attr title  "Radio transmission state, count"
scalar scenarioPRJP1.node[31].wlan[0].radio 	receptionState:count 	71620
attr interpolationmode  sample-hold
attr source  receptionStateChanged
attr title  "Radio reception state, count"
scalar scenarioPRJP1.node[31].wlan[0].radio 	radioMode:count 	9228
attr interpolationmode  sample-hold
attr source  radioModeChanged
attr title  "Radio mode, count"
statistic scenarioPRJP1.node[31].wlan[0].radio 	symbolErrorRate:histogram
field count 0
field mean -nan
field stddev -nan
field sum 0
field sqrsum 0
field min -nan
field max -nan
attr source  symbolErrorRate
attr title  "Symbol error rate, histogram"
bin	-INF	0
bin	-0.5	0
bin	-0.46666666666667	0
bin	-0.43333333333333	0
bin	-0.4	0
bin	-0.36666666666667	0
bin	-0.33333333333333	0
bin	-0.3	0
bin	-0.26666666666667	0
bin	-0.23333333333333	0
bin	-0.2	0
bin	-0.16666666666667	0
bin	-0.13333333333333	0
bin	-0.1	0
bin	-0.066666666666667	0
bin	-0.033333333333333	0
bin	0	0
bin	0.033333333333333	0
bin	0.066666666666667	0
bin	0.1	0
bin	0.13333333333333	0
bin	0.16666666666667	0
bin	0.2	0
bin	0.23333333333333	0
bin	0.26666666666667	0
bin	0.3	0
bin	0.33333333333333	0
bin	0.36666666666667	0
bin	0.4	0
bin	0.43333333333333	0
bin	0.46666666666667	0
bin	0.5	0
statistic scenarioPRJP1.node[31].wlan[0].radio 	bitErrorRate:histogram
field count 0
field mean -nan
field stddev -nan
field sum 0
field sqrsum 0
field min -nan
field max -nan
attr source  bitErrorRate
attr title  "Bit error rate, histogram"
bin	-INF	0
bin	-0.5	0
bin	-0.46666666666667	0
bin	-0.43333333333333	0
bin	-0.4	0
bin	-0.36666666666667	0
bin	-0.33333333333333	0
bin	-0.3	0
bin	-0.26666666666667	0
bin	-0.23333333333333	0
bin	-0.2	0
bin	-0.16666666666667	0
bin	-0.13333333333333	0
bin	-0.1	0
bin	-0.066666666666667	0
bin	-0.033333333333333	0
bin	0	0
bin	0.033333333333333	0
bin	0.066666666666667	0
bin	0.1	0
bin	0.13333333333333	0
bin	0.16666666666667	0
bin	0.2	0
bin	0.23333333333333	0
bin	0.26666666666667	0
bin	0.3	0
bin	0.33333333333333	0
bin	0.36666666666667	0
bin	0.4	0
bin	0.43333333333333	0
bin	0.46666666666667	0
bin	0.5	0
statistic scenarioPRJP1.node[31].wlan[0].radio 	packetErrorRate:histogram
field count 30004
field mean 0.21006118386641
field stddev 0.3974624899222
field sum 6302.6757607276
field sqrsum 6063.7143879719
field min 0
field max 1
attr source  packetErrorRate
attr title  "Packet error rate, histogram"
bin	-INF	0
bin	-0.5	0
bin	-0.43333333333333	0
bin	-0.36666666666667	0
bin	-0.3	0
bin	-0.23333333333333	0
bin	-0.16666666666667	0
bin	-0.1	0
bin	-0.033333333333333	22718
bin	0.033333333333333	390
bin	0.1	209
bin	0.16666666666667	128
bin	0.23333333333333	109
bin	0.3	88
bin	0.36666666666667	76
bin	0.43333333333333	73
bin	0.5	65
bin	0.56666666666667	62
bin	0.63333333333333	57
bin	0.7	56
bin	0.76666666666667	66
bin	0.83333333333333	73
bin	0.9	127
bin	0.96666666666667	5707
bin	1.0333333333333	0
bin	1.1	0
bin	1.1666666666667	0
bin	1.2333333333333	0
bin	1.3	0
bin	1.3666666666667	0
bin	1.4333333333333	0
bin	1.5	0
statistic scenarioPRJP1.node[31].wlan[0].radio 	minSNIR:histogram
field count 30004
field mean 3224.418873346
field stddev 27354.163276724
field sum 96745463.875874
field sqrsum 22761700107468
field min 0.00017841158791602
field max 1014693.9452671
attr source  minSNIR
attr title  "Min SNIR, histogram"
bin	-INF	0
bin	-606.61485292505	0
bin	-525.73203817548	0
bin	-444.84922342591	0
bin	-363.96640867634	0
bin	-283.08359392678	0
bin	-202.20077917721	0
bin	-121.31796442764	0
bin	-40.435149678077	18968
bin	40.44766507149	1921
bin	121.33047982106	2359
bin	202.21329457062	1069
bin	283.09610932019	612
bin	363.97892406976	398
bin	444.86173881933	309
bin	525.74455356889	259
bin	606.62736831846	204
bin	687.51018306803	209
bin	768.39299781759	160
bin	849.27581256716	116
bin	930.15862731673	119
bin	1011.0414420663	101
bin	1091.9242568159	95
bin	1172.8070715654	106
bin	1253.689886315	82
bin	1334.5727010646	78
bin	1415.4555158141	81
bin	1496.3383305637	63
bin	1577.2211453133	62
bin	1658.1039600628	62
bin	1738.9867748124	56
bin	1819.869589562	2515
scalar scenarioPRJP1.node[31].lo0.lo 	droppedPkBitError:count 	0
attr interpolationmode  none
attr source  dropPkBitError
attr title  "packets dropped/bit error, count"
scalar scenarioPRJP1.node[31].lo0.lo 	droppedPkBitError:sum(packetBytes) 	0
attr interpolationmode  none
attr source  dropPkBitError
attr title  "packets dropped/bit error, sum(packetBytes)"
scalar scenarioPRJP1.node[31].lo0.lo 	rcvdPkFromHL:count 	0
attr interpolationmode  none
attr source  packetReceivedFromUpper
attr title  "packets received from higher layer, count"
scalar scenarioPRJP1.node[31].lo0.lo 	rcvdPkFromHL:sum(packetBytes) 	0
attr interpolationmode  none
attr source  packetReceivedFromUpper
attr title  "packets received from higher layer, sum(packetBytes)"
scalar scenarioPRJP1.node[31].lo0.lo 	passedUpPk:count 	0
attr interpolationmode  none
attr source  packetSentToUpper
attr title  "packets passed to higher layer, count"
scalar scenarioPRJP1.node[31].lo0.lo 	passedUpPk:sum(packetBytes) 	0
attr interpolationmode  none
attr source  packetSentToUpper
attr title  "packets passed to higher layer, sum(packetBytes)"
scalar scenarioPRJP1.node[85].app 	"Total sent" 	718
scalar scenarioPRJP1.node[85].app 	"Total received" 	39
scalar scenarioPRJP1.node[85].app 	"Total deleted" 	4
scalar scenarioPRJP1.node[85].app 	dropPk:count 	4
attr interpolationmode  none
attr source  dropPk
attr title  "packets dropped, count"
scalar scenarioPRJP1.node[85].app 	dropPk:sum(packetBytes) 	2048
attr interpolationmode  none
attr source  dropPk
attr title  "packets dropped, sum(packetBytes)"
scalar scenarioPRJP1.node[85].app 	outOfOrderPk:count 	0
attr interpolationmode  none
attr source  outOfOrderPk
attr title  "packets received out of order, count"
scalar scenarioPRJP1.node[85].app 	outOfOrderPk:sum(packetBytes) 	0
attr interpolationmode  none
attr source  outOfOrderPk
attr title  "packets received out of order, sum(packetBytes)"
scalar scenarioPRJP1.node[85].app 	rcvdPk:count 	39
attr interpolationmode  none
attr source  rcvdPk
attr title  "packets received, count"
scalar scenarioPRJP1.node[85].app 	rcvdPk:sum(packetBytes) 	19968
attr interpolationmode  none
attr source  rcvdPk
attr title  "packets received, sum(packetBytes)"
statistic scenarioPRJP1.node[85].app 	endToEndDelay:histogram
field count 39
field mean 0.47326451166928
field stddev 1.7116366461122
field sum 18.457315955102
field sqrsum 120.06379293815
field min 0.000971045371
field max 10.407794263417
attr interpolationmode  none
attr source  messageAge(rcvdPk)
attr title  "delay, histogram"
attr unit  s
bin	-INF	0
bin	-5.202440563652	0
bin	-4.5086523491156	0
bin	-3.8148641345792	0
bin	-3.1210759200428	0
bin	-2.4272877055064	0
bin	-1.73349949097	0
bin	-1.0397112764336	0
bin	-0.3459230618972	32
bin	0.3478651526392	3
bin	1.0416533671756	1
bin	1.735441581712	2
bin	2.4292297962484	0
bin	3.1230180107848	0
bin	3.8168062253212	0
bin	4.5105944398576	0
bin	5.204382654394	0
bin	5.8981708689304	0
bin	6.5919590834668	0
bin	7.2857472980032	0
bin	7.9795355125396	0
bin	8.673323727076	0
bin	9.3671119416124	0
bin	10.060900156149	1
bin	10.754688370685	0
bin	11.448476585222	0
bin	12.142264799758	0
bin	12.836053014294	0
bin	13.529841228831	0
bin	14.223629443367	0
bin	14.917417657904	0
bin	15.61120587244	0
scalar scenarioPRJP1.node[85].app 	sentPk:count 	718
attr interpolationmode  none
attr source  sentPk
attr title  "packets sent, count"
scalar scenarioPRJP1.node[85].app 	sentPk:sum(packetBytes) 	367616
attr interpolationmode  none
attr source  sentPk
attr title  "packets sent, sum(packetBytes)"
scalar scenarioPRJP1.node[85].udp 	droppedPkBadChecksum:count 	0
attr interpolationmode  none
attr title  "packets dropped (checksum error), count"
scalar scenarioPRJP1.node[85].udp 	droppedPkWrongPort:count 	0
attr interpolationmode  none
attr title  "packets dropped (wrong port), count"
scalar scenarioPRJP1.node[85].udp 	passedUpPk:count 	43
attr interpolationmode  none
attr title  "packets passed up, count"
scalar scenarioPRJP1.node[85].udp 	rcvdPk:count 	43
attr interpolationmode  none
attr source  rcvdPk
attr title  "packets received, count"
scalar scenarioPRJP1.node[85].udp 	rcvdPk:sum(packetBytes) 	22360
attr interpolationmode  none
attr source  rcvdPk
attr title  "packets received, sum(packetBytes)"
scalar scenarioPRJP1.node[85].udp 	sentPk:count 	718
attr interpolationmode  none
attr source  sentPk
attr title  "packets sent, count"
scalar scenarioPRJP1.node[85].udp 	sentPk:sum(packetBytes) 	373360
attr interpolationmode  none
attr source  sentPk
attr title  "packets sent, sum(packetBytes)"
scalar scenarioPRJP1.node[85].networkLayer.arp 	failedARPResolution:count 	78
attr title  "ARP failed resolutions, count"
scalar scenarioPRJP1.node[85].networkLayer.arp 	completedARPResolution:count 	972
attr title  "ARP completed resolutions, count"
scalar scenarioPRJP1.node[85].networkLayer.arp 	initiatedARPResolution:count 	103
attr title  "ARP initiated resolutions, count"
scalar scenarioPRJP1.node[85].networkLayer.arp 	sentReply:count 	24
attr title  "ARP replies sent, count"
scalar scenarioPRJP1.node[85].networkLayer.arp 	sentReq:count 	284
attr title  "ARP request sent, count"
scalar scenarioPRJP1.node[85].mobility 	startTime 	9.7
scalar scenarioPRJP1.node[85].mobility 	totalTime 	274.5
scalar scenarioPRJP1.node[85].mobility 	stopTime 	284.3
scalar scenarioPRJP1.node[85].mobility 	minSpeed 	2.4760953266929e-13
scalar scenarioPRJP1.node[85].mobility 	maxSpeed 	18.331747802817
scalar scenarioPRJP1.node[85].mobility 	totalDistance 	2207.6168718847
scalar scenarioPRJP1.node[85].mobility 	totalCO2Emission 	679.71769167275
scalar scenarioPRJP1.node[85].wlan[0].mgmt 	dataQueueLen:max 	5
attr interpolationmode  sample-hold
attr title  "data queue length, max"
scalar scenarioPRJP1.node[85].wlan[0].mgmt 	dataQueueLen:timeavg 	0
attr interpolationmode  sample-hold
attr title  "data queue length, timeavg"
scalar scenarioPRJP1.node[85].wlan[0].mgmt 	dropPkByQueue:count 	0
attr interpolationmode  none
attr source  dropPkByQueue
attr title  "packets dropped by queue, count"
scalar scenarioPRJP1.node[85].wlan[0].mgmt 	dropPkByQueue:sum(packetBytes) 	0
attr interpolationmode  none
attr source  dropPkByQueue
attr title  "packets dropped by queue, sum(packetBytes)"
scalar scenarioPRJP1.node[85].wlan[0].mac 	"number of received packets" 	679
scalar scenarioPRJP1.node[85].wlan[0].mac 	"number of collisions" 	10089
scalar scenarioPRJP1.node[85].wlan[0].mac 	"number of internal collisions" 	0
scalar scenarioPRJP1.node[85].wlan[0].mac 	"number of retry for AC 0" 	1123
scalar scenarioPRJP1.node[85].wlan[0].mac 	"number of retry for AC 1" 	0
scalar scenarioPRJP1.node[85].wlan[0].mac 	"number of retry for AC 2" 	0
scalar scenarioPRJP1.node[85].wlan[0].mac 	"number of retry for AC 3" 	0
scalar scenarioPRJP1.node[85].wlan[0].mac 	"sent and received bits" 	3740224
scalar scenarioPRJP1.node[85].wlan[0].mac 	"sent packet within AC 0" 	550
scalar scenarioPRJP1.node[85].wlan[0].mac 	"sent packet within AC 1" 	1
scalar scenarioPRJP1.node[85].wlan[0].mac 	"sent packet within AC 2" 	0
scalar scenarioPRJP1.node[85].wlan[0].mac 	"sent packet within AC 3" 	0
scalar scenarioPRJP1.node[85].wlan[0].mac 	"sent in TXOP " 	0
scalar scenarioPRJP1.node[85].wlan[0].mac 	"sentWithoutRetry AC 0" 	520
scalar scenarioPRJP1.node[85].wlan[0].mac 	"sentWithoutRetry AC 1" 	1
scalar scenarioPRJP1.node[85].wlan[0].mac 	"sentWithoutRetry AC 2" 	0
scalar scenarioPRJP1.node[85].wlan[0].mac 	"sentWithoutRetry AC 3" 	0
scalar scenarioPRJP1.node[85].wlan[0].mac 	"numGivenUp AC 0" 	179
scalar scenarioPRJP1.node[85].wlan[0].mac 	"numGivenUp AC 1" 	0
scalar scenarioPRJP1.node[85].wlan[0].mac 	"numGivenUp AC 2" 	0
scalar scenarioPRJP1.node[85].wlan[0].mac 	"numGivenUp AC 3" 	0
scalar scenarioPRJP1.node[85].wlan[0].mac 	"numDropped AC 0" 	0
scalar scenarioPRJP1.node[85].wlan[0].mac 	"numDropped AC 1" 	0
scalar scenarioPRJP1.node[85].wlan[0].mac 	"numDropped AC 2" 	0
scalar scenarioPRJP1.node[85].wlan[0].mac 	"numDropped AC 3" 	0
scalar scenarioPRJP1.node[85].wlan[0].mac 	rcvdPkFromLL:count 	45526
attr interpolationmode  none
attr source  packetReceivedFromLower
attr title  "packets received from lower layer, count"
scalar scenarioPRJP1.node[85].wlan[0].mac 	rcvdPkFromLL:sum(packetBytes) 	7307892
attr interpolationmode  none
attr source  packetReceivedFromLower
attr title  "packets received from lower layer, sum(packetBytes)"
scalar scenarioPRJP1.node[85].wlan[0].mac 	sentDownPk:count 	6771
attr interpolationmode  none
attr source  packetSentToLower
attr title  "packets sent to lower layer, count"
scalar scenarioPRJP1.node[85].wlan[0].mac 	sentDownPk:sum(packetBytes) 	1047306
attr interpolationmode  none
attr source  packetSentToLower
attr title  "packets sent to lower layer, sum(packetBytes)"
scalar scenarioPRJP1.node[85].wlan[0].mac 	rcvdPkFromHL:count 	4969
attr interpolationmode  none
attr source  packetReceivedFromUpper
attr title  "packets received from higher layer, count"
scalar scenarioPRJP1.node[85].wlan[0].mac 	rcvdPkFromHL:sum(packetBytes) 	546164
attr interpolationmode  none
attr source  packetReceivedFromUpper
attr title  "packets received from higher layer, sum(packetBytes)"
scalar scenarioPRJP1.node[85].wlan[0].mac 	passedUpPk:count 	25225
attr interpolationmode  none
attr source  packetSentToUpper
attr title  "packets passed to higher layer, count"
scalar scenarioPRJP1.node[85].wlan[0].mac 	passedUpPk:sum(packetBytes) 	2253960
attr interpolationmode  none
attr source  packetSentToUpper
attr title  "packets passed to higher layer, sum(packetBytes)"
statistic scenarioPRJP1.node[85].wlan[0].radio 	radioChannel:histogram
field count 1
field mean 3
field stddev -nan
field sum 3
field sqrsum 9
field min 3
field max 3
attr interpolationmode  sample-hold
attr source  radioChannelChanged
attr title  "Radio channel, histogram"
bin	-INF	0
bin	2	0
bin	3	1
bin	4	0
scalar scenarioPRJP1.node[85].wlan[0].radio 	transmissionState:count 	27084
attr interpolationmode  sample-hold
attr source  transmissionStateChanged
attr title  "Radio transmission state, count"
scalar scenarioPRJP1.node[85].wlan[0].radio 	receptionState:count 	107918
attr interpolationmode  sample-hold
attr source  receptionStateChanged
attr title  "Radio reception state, count"
scalar scenarioPRJP1.node[85].wlan[0].radio 	radioMode:count 	13544
[...]
attr interpolationmode  none
attr source  packetSentToUpper
attr title  "packets passed to higher layer, sum(packetBytes)"
statistic scenarioPRJP1.node[72].wlan[0].radio 	radioChannel:histogram
field count 1
field mean 3
field stddev -nan
field sum 3
field sqrsum 9
field min 3
field max 3
attr interpolationmode  sample-hold
attr source  radioChannelChanged
attr title  "Radio channel, histogram"
bin	-INF	0
bin	2	0
bin	3	1
bin	4	0
scalar scenarioPRJP1.node[72].wlan[0].radio 	transmissionState:count 	143500
attr interpolationmode  sample-hold
attr source  transmissionStateChanged
attr title  "Radio transmission state, count"
scalar scenarioPRJP1.node[72].wlan[0].radio 	receptionState:count 	596996
attr interpolationmode  sample-hold
attr source  receptionStateChanged
attr title  "Radio reception state, count"
scalar scenarioPRJP1.node[72].wlan[0].radio 	radioMode:count 	71752
attr interpolationmode  sample-hold
attr source  radioModeChanged
attr title  "Radio mode, count"
statistic scenarioPRJP1.node[72].wlan[0].radio 	symbolErrorRate:histogram
field count 0
field mean -nan
field stddev -nan
field sum 0
field sqrsum 0
field min -nan
field max -nan
attr source  symbolErrorRate
attr title  "Symbol error rate, histogram"
bin	-INF	0
bin	-0.5	0
bin	-0.46666666666667	0
bin	-0.43333333333333	0
bin	-0.4	0
bin	-0.36666666666667	0
bin	-0.33333333333333	0
bin	-0.3	0
bin	-0.26666666666667	0
bin	-0.23333333333333	0
bin	-0.2	0
bin	-0.16666666666667	0
bin	-0.13333333333333	0
bin	-0.1	0
bin	-0.066666666666667	0
bin	-0.033333333333333	0
bin	0	0
bin	0.033333333333333	0
bin	0.066666666666667	0
bin	0.1	0
bin	0.13333333333333	0
bin	0.16666666666667	0
bin	0.2	0
bin	0.23333333333333	0
bin	0.26666666666667	0
bin	0.3	0
bin	0.33333333333333	0
bin	0.36666666666667	0
bin	0.4	0
bin	0.43333333333333	0
bin	0.46666666666667	0
bin	0.5	0
statistic scenarioPRJP1.node[72].wlan[0].radio 	bitErrorRate:histogram
field count 0
field mean -nan
field stddev -nan
field sum 0
field sqrsum 0
field min -nan
field max -nan
attr source  bitErrorRate
attr title  "Bit error rate, histogram"
bin	-INF	0
bin	-0.5	0
bin	-0.46666666666667	0
bin	-0.43333333333333	0
bin	-0.4	0
bin	-0.36666666666667	0
bin	-0.33333333333333	0
bin	-0.3	0
bin	-0.26666666666667	0
bin	-0.23333333333333	0
bin	-0.2	0
bin	-0.16666666666667	0
bin	-0.13333333333333	0
bin	-0.1	0
bin	-0.066666666666667	0
bin	-0.033333333333333	0
bin	0	0
bin	0.033333333333333	0
bin	0.066666666666667	0
bin	0.1	0
bin	0.13333333333333	0
bin	0.16666666666667	0
bin	0.2	0
bin	0.23333333333333	0
bin	0.26666666666667	0
bin	0.3	0
bin	0.33333333333333	0
bin	0.36666666666667	0
bin	0.4	0
bin	0.43333333333333	0
bin	0.46666666666667	0
bin	0.5	0
statistic scenarioPRJP1.node[72].wlan[0].radio 	packetErrorRate:histogram
field count 251523
field mean 0.25433386233638
field stddev 0.42470688858007
field sum 63970.816056433
field sqrsum 61638.4622088
field min 0
field max 1
attr source  packetErrorRate
attr title  "Packet error rate, histogram"
bin	-INF	0
bin	-0.5	0
bin	-0.43333333333333	0
bin	-0.36666666666667	0
bin	-0.3	0
bin	-0.23333333333333	0
bin	-0.16666666666667	0
bin	-0.1	0
bin	-0.033333333333333	177786
bin	0.033333333333333	4101
bin	0.1	1894
bin	0.16666666666667	1307
bin	0.23333333333333	1009
bin	0.3	856
bin	0.36666666666667	774
bin	0.43333333333333	659
bin	0.5	604
bin	0.56666666666667	564
bin	0.63333333333333	608
bin	0.7	590
bin	0.76666666666667	636
bin	0.83333333333333	855
bin	0.9	1201
bin	0.96666666666667	58079
bin	1.0333333333333	0
bin	1.1	0
bin	1.1666666666667	0
bin	1.2333333333333	0
bin	1.3	0
bin	1.3666666666667	0
bin	1.4333333333333	0
bin	1.5	0
statistic scenarioPRJP1.node[72].wlan[0].radio 	minSNIR:histogram
field count 251523
field mean 1040.6667316543
field stddev 13954.706940085
field sum 261751618.3459
field sqrsum 49252242560364
field min 0.00013496393009626
field max 1388182.5501382
attr source  minSNIR
attr title  "Min SNIR, histogram"
bin	-INF	0
bin	-1159.192997535	0
bin	-1004.630593458	0
bin	-850.068189381	0
bin	-695.50578530399	0
bin	-540.94338122698	0
bin	-386.38097714998	0
bin	-231.81857307297	0
bin	-77.25616899596	188843
bin	77.306235081048	26959
bin	231.86863915806	9706
bin	386.43104323506	4703
bin	540.99344731207	2860
bin	695.55585138908	2074
bin	850.11825546609	1512
bin	1004.6806595431	1129
bin	1159.2430636201	996
bin	1313.8054676971	774
bin	1468.3678717741	720
bin	1622.9302758511	613
bin	1777.4926799281	526
bin	1932.0550840051	446
bin	2086.6174880821	400
bin	2241.1798921592	334
bin	2395.7422962362	341
bin	2550.3047003132	268
bin	2704.8671043902	307
bin	2859.4295084672	237
bin	3013.9919125442	247
bin	3168.5543166212	244
bin	3323.1167206982	224
bin	3477.6791247752	7060
scalar scenarioPRJP1.node[72].lo0.lo 	droppedPkBitError:count 	0
attr interpolationmode  none
attr source  dropPkBitError
attr title  "packets dropped/bit error, count"
scalar scenarioPRJP1.node[72].lo0.lo 	droppedPkBitError:sum(packetBytes) 	0
attr interpolationmode  none
attr source  dropPkBitError
attr title  "packets dropped/bit error, sum(packetBytes)"
scalar scenarioPRJP1.node[72].lo0.lo 	rcvdPkFromHL:count 	0
attr interpolationmode  none
attr source  packetReceivedFromUpper
attr title  "packets received from higher layer, count"
scalar scenarioPRJP1.node[72].lo0.lo 	rcvdPkFromHL:sum(packetBytes) 	0
attr interpolationmode  none
attr source  packetReceivedFromUpper
attr title  "packets received from higher layer, sum(packetBytes)"
scalar scenarioPRJP1.node[72].lo0.lo 	passedUpPk:count 	0
attr interpolationmode  none
attr source  packetSentToUpper
attr title  "packets passed to higher layer, count"
scalar scenarioPRJP1.node[72].lo0.lo 	passedUpPk:sum(packetBytes) 	0
attr interpolationmode  none
attr source  packetSentToUpper
attr title  "packets passed to higher layer, sum(packetBytes)"
scalar scenarioPRJP1.node[92].app 	"Total sent" 	2616
scalar scenarioPRJP1.node[92].app 	"Total received" 	119
scalar scenarioPRJP1.node[92].app 	"Total deleted" 	16
scalar scenarioPRJP1.node[92].app 	dropPk:count 	16
attr interpolationmode  none
attr source  dropPk
attr title  "packets dropped, count"
scalar scenarioPRJP1.node[92].app 	dropPk:sum(packetBytes) 	8192
attr interpolationmode  none
attr source  dropPk
attr title  "packets dropped, sum(packetBytes)"
scalar scenarioPRJP1.node[92].app 	outOfOrderPk:count 	13
attr interpolationmode  none
attr source  outOfOrderPk
attr title  "packets received out of order, count"
scalar scenarioPRJP1.node[92].app 	outOfOrderPk:sum(packetBytes) 	6656
attr interpolationmode  none
attr source  outOfOrderPk
attr title  "packets received out of order, sum(packetBytes)"
scalar scenarioPRJP1.node[92].app 	rcvdPk:count 	119
attr interpolationmode  none
attr source  rcvdPk
attr title  "packets received, count"
scalar scenarioPRJP1.node[92].app 	rcvdPk:sum(packetBytes) 	60928
attr interpolationmode  none
attr source  rcvdPk
attr title  "packets received, sum(packetBytes)"
statistic scenarioPRJP1.node[92].app 	endToEndDelay:histogram
field count 119
field mean 0.5059697721033
field stddev 2.0135206626242
field sum 60.210402880293
field sqrsum 508.8679679637
field min 0.000958011007
field max 18.2139757647
attr interpolationmode  none
attr source  messageAge(rcvdPk)
attr title  "delay, histogram"
attr unit  s
bin	-INF	0
bin	-9.105472252011	0
bin	-7.8912745623794	0
bin	-6.6770768727478	0
bin	-5.4628791831162	0
bin	-4.2486814934846	0
bin	-3.034483803853	0
bin	-1.8202861142214	0
bin	-0.6060884245898	102
bin	0.6081092650418	8
bin	1.8223069546734	5
bin	3.036504644305	0
bin	4.2507023339366	1
bin	5.4649000235682	0
bin	6.6790977131998	1
bin	7.8932954028314	1
bin	9.107493092463	0
bin	10.321690782095	0
bin	11.535888471726	0
bin	12.750086161358	0
bin	13.964283850989	0
bin	15.178481540621	0
bin	16.392679230253	0
bin	17.606876919884	1
bin	18.821074609516	0
bin	20.035272299147	0
bin	21.249469988779	0
bin	22.463667678411	0
bin	23.677865368042	0
bin	24.892063057674	0
bin	26.106260747305	0
bin	27.320458436937	0
scalar scenarioPRJP1.node[92].app 	sentPk:count 	2616
attr interpolationmode  none
attr source  sentPk
attr title  "packets sent, count"
scalar scenarioPRJP1.node[92].app 	sentPk:sum(packetBytes) 	1339392
attr interpolationmode  none
attr source  sentPk
attr title  "packets sent, sum(packetBytes)"
scalar scenarioPRJP1.node[92].udp 	droppedPkBadChecksum:count 	0
attr interpolationmode  none
attr title  "packets dropped (checksum error), count"
scalar scenarioPRJP1.node[92].udp 	droppedPkWrongPort:count 	0
attr interpolationmode  none
attr title  "packets dropped (wrong port), count"
scalar scenarioPRJP1.node[92].udp 	passedUpPk:count 	148
attr interpolationmode  none
attr title  "packets passed up, count"
scalar scenarioPRJP1.node[92].udp 	rcvdPk:count 	148
attr interpolationmode  none
attr source  rcvdPk
attr title  "packets received, count"
scalar scenarioPRJP1.node[92].udp 	rcvdPk:sum(packetBytes) 	76960
attr interpolationmode  none
attr source  rcvdPk
attr title  "packets received, sum(packetBytes)"
scalar scenarioPRJP1.node[92].udp 	sentPk:count 	2616
attr interpolationmode  none
attr source  sentPk
attr title  "packets sent, count"
scalar scenarioPRJP1.node[92].udp 	sentPk:sum(packetBytes) 	1360320
attr interpolationmode  none
attr source  sentPk
attr title  "packets sent, sum(packetBytes)"
scalar scenarioPRJP1.node[92].networkLayer.arp 	failedARPResolution:count 	326
attr title  "ARP failed resolutions, count"
scalar scenarioPRJP1.node[92].networkLayer.arp 	completedARPResolution:count 	4729
attr title  "ARP completed resolutions, count"
scalar scenarioPRJP1.node[92].networkLayer.arp 	initiatedARPResolution:count 	436
attr title  "ARP initiated resolutions, count"
scalar scenarioPRJP1.node[92].networkLayer.arp 	sentReply:count 	61
attr title  "ARP replies sent, count"
scalar scenarioPRJP1.node[92].networkLayer.arp 	sentReq:count 	1176
attr title  "ARP request sent, count"
scalar scenarioPRJP1.node[92].mobility 	startTime 	9.7
scalar scenarioPRJP1.node[92].mobility 	totalTime 	940.2
scalar scenarioPRJP1.node[92].mobility 	stopTime 	950
scalar scenarioPRJP1.node[92].mobility 	minSpeed 	2.4754730543545e-13
scalar scenarioPRJP1.node[92].mobility 	maxSpeed 	17.925559835626
scalar scenarioPRJP1.node[92].mobility 	totalDistance 	8549.6329910591
scalar scenarioPRJP1.node[92].mobility 	totalCO2Emission 	2436.8663086931
scalar scenarioPRJP1.node[92].wlan[0].mgmt 	dataQueueLen:max 	12
attr interpolationmode  sample-hold
attr title  "data queue length, max"
scalar scenarioPRJP1.node[92].wlan[0].mgmt 	dataQueueLen:timeavg 	0
attr interpolationmode  sample-hold
attr title  "data queue length, timeavg"
scalar scenarioPRJP1.node[92].wlan[0].mgmt 	dropPkByQueue:count 	0
attr interpolationmode  none
attr source  dropPkByQueue
attr title  "packets dropped by queue, count"
scalar scenarioPRJP1.node[92].wlan[0].mgmt 	dropPkByQueue:sum(packetBytes) 	0
attr interpolationmode  none
attr source  dropPkByQueue
attr title  "packets dropped by queue, sum(packetBytes)"
scalar scenarioPRJP1.node[92].wlan[0].mac 	"number of received packets" 	2961
scalar scenarioPRJP1.node[92].wlan[0].mac 	"number of collisions" 	86656
scalar scenarioPRJP1.node[92].wlan[0].mac 	"number of internal collisions" 	0
scalar scenarioPRJP1.node[92].wlan[0].mac 	"number of retry for AC 0" 	10449
scalar scenarioPRJP1.node[92].wlan[0].mac 	"number of retry for AC 1" 	0
scalar scenarioPRJP1.node[92].wlan[0].mac 	"number of retry for AC 2" 	0
scalar scenarioPRJP1.node[92].wlan[0].mac 	"number of retry for AC 3" 	0
scalar scenarioPRJP1.node[92].wlan[0].mac 	"sent and received bits" 	19484928
scalar scenarioPRJP1.node[92].wlan[0].mac 	"sent packet within AC 0" 	1291
scalar scenarioPRJP1.node[92].wlan[0].mac 	"sent packet within AC 1" 	1
scalar scenarioPRJP1.node[92].wlan[0].mac 	"sent packet within AC 2" 	0
scalar scenarioPRJP1.node[92].wlan[0].mac 	"sent packet within AC 3" 	0
scalar scenarioPRJP1.node[92].wlan[0].mac 	"sent in TXOP " 	0
scalar scenarioPRJP1.node[92].wlan[0].mac 	"sentWithoutRetry AC 0" 	1011
scalar scenarioPRJP1.node[92].wlan[0].mac 	"sentWithoutRetry AC 1" 	1
scalar scenarioPRJP1.node[92].wlan[0].mac 	"sentWithoutRetry AC 2" 	0
scalar scenarioPRJP1.node[92].wlan[0].mac 	"sentWithoutRetry AC 3" 	0
scalar scenarioPRJP1.node[92].wlan[0].mac 	"numGivenUp AC 0" 	1647
scalar scenarioPRJP1.node[92].wlan[0].mac 	"numGivenUp AC 1" 	0
scalar scenarioPRJP1.node[92].wlan[0].mac 	"numGivenUp AC 2" 	0
scalar scenarioPRJP1.node[92].wlan[0].mac 	"numGivenUp AC 3" 	0
scalar scenarioPRJP1.node[92].wlan[0].mac 	"numDropped AC 0" 	0
scalar scenarioPRJP1.node[92].wlan[0].mac 	"numDropped AC 1" 	0
scalar scenarioPRJP1.node[92].wlan[0].mac 	"numDropped AC 2" 	0
scalar scenarioPRJP1.node[92].wlan[0].mac 	"numDropped AC 3" 	0
scalar scenarioPRJP1.node[92].wlan[0].mac 	rcvdPkFromLL:count 	326763
attr interpolationmode  none
attr source  packetReceivedFromLower
attr title  "packets received from lower layer, count"
scalar scenarioPRJP1.node[92].wlan[0].mac 	rcvdPkFromLL:sum(packetBytes) 	52881512
attr interpolationmode  none
attr source  packetReceivedFromLower
attr title  "packets received from lower layer, sum(packetBytes)"
scalar scenarioPRJP1.node[92].wlan[0].mac 	sentDownPk:count 	39806
attr interpolationmode  none
attr source  packetSentToLower
attr title  "packets sent to lower layer, count"
scalar scenarioPRJP1.node[92].wlan[0].mac 	sentDownPk:sum(packetBytes) 	7060906
attr interpolationmode  none
attr source  packetSentToLower
attr title  "packets sent to lower layer, sum(packetBytes)"
scalar scenarioPRJP1.node[92].wlan[0].mac 	rcvdPkFromHL:count 	26396
attr interpolationmode  none
attr source  packetReceivedFromUpper
attr title  "packets received from higher layer, count"
scalar scenarioPRJP1.node[92].wlan[0].mac 	rcvdPkFromHL:sum(packetBytes) 	3055164
attr interpolationmode  none
attr source  packetReceivedFromUpper
attr title  "packets received from higher layer, sum(packetBytes)"
scalar scenarioPRJP1.node[92].wlan[0].mac 	passedUpPk:count 	134604
attr interpolationmode  none
attr source  packetSentToUpper
attr title  "packets passed to higher layer, count"
scalar scenarioPRJP1.node[92].wlan[0].mac 	passedUpPk:sum(packetBytes) 	12186336
attr interpolationmode  none
attr source  packetSentToUpper
attr title  "packets passed to higher layer, sum(packetBytes)"
statistic scenarioPRJP1.node[92].wlan[0].radio 	radioChannel:histogram
field count 1
field mean 3
field stddev -nan
field sum 3
field sqrsum 9
field min 3
field max 3
attr interpolationmode  sample-hold
attr source  radioChannelChanged
attr title  "Radio channel, histogram"
bin	-INF	0
bin	2	0
bin	3	1
bin	4	0
scalar scenarioPRJP1.node[92].wlan[0].radio 	transmissionState:count 	159224
attr interpolationmode  sample-hold
attr source  transmissionStateChanged
attr title  "Radio transmission state, count"
scalar scenarioPRJP1.node[92].wlan[0].radio 	receptionState:count 	762888
attr interpolationmode  sample-hold
attr source  receptionStateChanged
attr title  "Radio reception state, count"
scalar scenarioPRJP1.node[92].wlan[0].radio 	radioMode:count 	79614
attr interpolationmode  sample-hold
attr source  radioModeChanged
attr title  "Radio mode, count"
statistic scenarioPRJP1.node[92].wlan[0].radio 	symbolErrorRate:histogram
field count 0
field mean -nan
field stddev -nan
field sum 0
field sqrsum 0
field min -nan
field max -nan
attr source  symbolErrorRate
attr title  "Symbol error rate, histogram"
bin	-INF	0
bin	-0.5	0
bin	-0.46666666666667	0
bin	-0.43333333333333	0
bin	-0.4	0
bin	-0.36666666666667	0
bin	-0.33333333333333	0
bin	-0.3	0
bin	-0.26666666666667	0
bin	-0.23333333333333	0
bin	-0.2	0
bin	-0.16666666666667	0
bin	-0.13333333333333	0
bin	-0.1	0
bin	-0.066666666666667	0
bin	-0.033333333333333	0
bin	0	0
bin	0.033333333333333	0
bin	0.066666666666667	0
bin	0.1	0
bin	0.13333333333333	0
bin	0.16666666666667	0
bin	0.2	0
bin	0.23333333333333	0
bin	0.26666666666667	0
bin	0.3	0
bin	0.33333333333333	0
bin	0.36666666666667	0
bin	0.4	0
bin	0.43333333333333	0
bin	0.46666666666667	0
bin	0.5	0
statistic scenarioPRJP1.node[92].wlan[0].radio 	bitErrorRate:histogram
field count 0
field mean -nan
field stddev -nan
field sum 0
field sqrsum 0
field min -nan
field max -nan
attr source  bitErrorRate
attr title  "Bit error rate, histogram"
bin	-INF	0
bin	-0.5	0
bin	-0.46666666666667	0
bin	-0.43333333333333	0
bin	-0.4	0
bin	-0.36666666666667	0
bin	-0.33333333333333	0
bin	-0.3	0
bin	-0.26666666666667	0
bin	-0.23333333333333	0
bin	-0.2	0
bin	-0.16666666666667	0
bin	-0.13333333333333	0
bin	-0.1	0
bin	-0.066666666666667	0
bin	-0.033333333333333	0
bin	0	0
bin	0.033333333333333	0
bin	0.066666666666667	0
bin	0.1	0
bin	0.13333333333333	0
bin	0.16666666666667	0
bin	0.2	0
bin	0.23333333333333	0
bin	0.26666666666667	0
bin	0.3	0
bin	0.33333333333333	0
bin	0.36666666666667	0
bin	0.4	0
bin	0.43333333333333	0
bin	0.46666666666667	0
bin	0.5	0
statistic scenarioPRJP1.node[92].wlan[0].radio 	packetErrorRate:histogram
field count 326763
field mean 0.22822286967485
field stddev 0.41018958393321
field sum 74574.789563562
field sqrsum 71999.174460747
field min 0
field max 1
attr source  packetErrorRate
attr title  "Packet error rate, histogram"
bin	-INF	0
bin	-0.5	0
bin	-0.43333333333333	0
bin	-0.36666666666667	0
bin	-0.3	0
bin	-0.23333333333333	0
bin	-0.16666666666667	0
bin	-0.1	0
bin	-0.033333333333333	241436
bin	0.033333333333333	4424
bin	0.1	2162
bin	0.16666666666667	1412
bin	0.23333333333333	1136
bin	0.3	945
bin	0.36666666666667	858
bin	0.43333333333333	720
bin	0.5	722
bin	0.56666666666667	659
bin	0.63333333333333	646
bin	0.7	651
bin	0.76666666666667	700
bin	0.83333333333333	855
bin	0.9	1297
bin	0.96666666666667	68140
bin	1.0333333333333	0
bin	1.1	0
bin	1.1666666666667	0
bin	1.2333333333333	0
bin	1.3	0
bin	1.3666666666667	0
bin	1.4333333333333	0
bin	1.5	0
statistic scenarioPRJP1.node[92].wlan[0].radio 	minSNIR:histogram
field count 326763
field mean 2467.4446185371
field stddev 23786.786714023
field sum 806269605.88705
field sqrsum 1.868750321816e+14
field min 8.6589337832105e-05
field max 1990640.6873361
attr source  minSNIR
attr title  "Min SNIR, histogram"
bin	-INF	0
bin	-331.65744238838	0
bin	-287.43231905161	0
bin	-243.20719571485	0
bin	-198.98207237808	0
bin	-154.75694904132	0
bin	-110.53182570456	0
bin	-66.306702367794	0
bin	-22.08157903103	189242
bin	22.143544305733	31456
bin	66.368667642497	10810
bin	110.59379097926	12510
bin	154.81891431602	9980
bin	199.04403765279	6723
bin	243.26916098955	4963
bin	287.49428432631	3663
bin	331.71940766308	3186
bin	375.94453099984	2595
bin	420.16965433661	2245
bin	464.39477767337	1999
bin	508.61990101013	1760
bin	552.8450243469	1552
bin	597.07014768366	1449
bin	641.29527102042	1262
bin	685.52039435719	1158
bin	729.74551769395	1064
bin	773.97064103071	1039
bin	818.19576436748	1014
bin	862.42088770424	904
bin	906.64601104101	805
bin	950.87113437777	733
bin	995.09625771453	34651
scalar scenarioPRJP1.node[92].lo0.lo 	droppedPkBitError:count 	0
attr interpolationmode  none
attr source  dropPkBitError
attr title  "packets dropped/bit error, count"
scalar scenarioPRJP1.node[92].lo0.lo 	droppedPkBitError:sum(packetBytes) 	0
attr interpolationmode  none
attr source  dropPkBitError
attr title  "packets dropped/bit error, sum(packetBytes)"
scalar scenarioPRJP1.node[92].lo0.lo 	rcvdPkFromHL:count 	1
attr interpolationmode  none
attr source  packetReceivedFromUpper
attr title  "packets received from higher layer, count"
scalar scenarioPRJP1.node[92].lo0.lo 	rcvdPkFromHL:sum(packetBytes) 	56
attr interpolationmode  none
attr source  packetReceivedFromUpper
attr title  "packets received from higher layer, sum(packetBytes)"
scalar scenarioPRJP1.node[92].lo0.lo 	passedUpPk:count 	1
attr interpolationmode  none
attr source  packetSentToUpper
attr title  "packets passed to higher layer, count"
scalar scenarioPRJP1.node[92].lo0.lo 	passedUpPk:sum(packetBytes) 	56
attr interpolationmode  none
attr source  packetSentToUpper
attr title  "packets passed to higher layer, sum(packetBytes)"
