version 2
run AODVRouting-LNS-100n-4-20150818-08:07:12-24492
attr configname AODVRouting-LNS-100n
attr datetime 20150818-08:07:12
attr experiment AODVRouting-LNS-100n
attr inifile omnetpp.ini
attr iterationvars ""
attr iterationvars2 $repetition=4
attr measurement ""
attr network Prj_Part1_propag.scenarioPRJP1
attr processid 24492
attr repetition 4
attr replication #4
attr resultdir results
attr runnumber 4
attr seedset 4

scalar scenarioPRJP1.radioMedium.propagation 	"Arrival computation count" 	419577840
scalar scenarioPRJP1.radioMedium 	"transmission count" 	4238160
scalar scenarioPRJP1.radioMedium 	"radio frame send count" 	419577840
scalar scenarioPRJP1.radioMedium 	"reception computation count" 	417579563
scalar scenarioPRJP1.radioMedium 	"interference computation count" 	1105342377
scalar scenarioPRJP1.radioMedium 	"reception decision computation count" 	35028665
scalar scenarioPRJP1.radioMedium 	"listening decision computation count" 	659491205
scalar scenarioPRJP1.radioMedium 	"reception cache hit" 	87.601501411947
attr unit  %
scalar scenarioPRJP1.radioMedium 	"interference cache hit" 	50
attr unit  %
scalar scenarioPRJP1.radioMedium 	"noise cache hit" 	0
attr unit  %
scalar scenarioPRJP1.radioMedium 	"snir cache hit" 	0
attr unit  %
scalar scenarioPRJP1.radioMedium 	"reception decision cache hit" 	0
attr unit  %
scalar scenarioPRJP1.node[0].app 	"Total sent" 	2613
scalar scenarioPRJP1.node[0].app 	"Total received" 	130
scalar scenarioPRJP1.node[0].app 	"Total deleted" 	24
scalar scenarioPRJP1.node[0].app 	dropPk:count 	24
attr interpolationmode  none
attr source  dropPk
attr title  "packets dropped, count"
scalar scenarioPRJP1.node[0].app 	dropPk:sum(packetBytes) 	12288
attr interpolationmode  none
attr source  dropPk
attr title  "packets dropped, sum(packetBytes)"
scalar scenarioPRJP1.node[0].app 	outOfOrderPk:count 	6
attr interpolationmode  none
attr source  outOfOrderPk
attr title  "packets received out of order, count"
scalar scenarioPRJP1.node[0].app 	outOfOrderPk:sum(packetBytes) 	3072
attr interpolationmode  none
attr source  outOfOrderPk
attr title  "packets received out of order, sum(packetBytes)"
scalar scenarioPRJP1.node[0].app 	rcvdPk:count 	130
attr interpolationmode  none
attr source  rcvdPk
attr title  "packets received, count"
scalar scenarioPRJP1.node[0].app 	rcvdPk:sum(packetBytes) 	66560
attr interpolationmode  none
attr source  rcvdPk
attr title  "packets received, sum(packetBytes)"
statistic scenarioPRJP1.node[0].app 	endToEndDelay:histogram
field count 130
field mean 0.19534944077208
field stddev 0.83835598353801
field sum 25.39542730037
field sqrsum 95.627439933579
field min 0.000914963801
field max 8.662163791642
attr interpolationmode  none
attr source  messageAge(rcvdPk)
attr title  "delay, histogram"
attr unit  s
bin	-INF	0
bin	-1.0050880699305	0
bin	-0.87094859076737	0
bin	-0.73680911160423	0
bin	-0.6026696324411	0
bin	-0.46853015327797	0
bin	-0.33439067411483	0
bin	-0.2002511949517	0
bin	-0.066111715788567	113
bin	0.068027763374567	1
bin	0.2021672425377	1
bin	0.33630672170083	1
bin	0.47044620086397	3
bin	0.6045856800271	2
bin	0.73872515919023	3
bin	0.87286463835337	0
bin	1.0070041175165	0
bin	1.1411435966796	0
bin	1.2752830758428	1
bin	1.4094225550059	0
bin	1.543562034169	0
bin	1.6777015133322	0
bin	1.8118409924953	2
bin	1.9459804716584	2
bin	2.0801199508216	0
bin	2.2142594299847	0
bin	2.3483989091478	0
bin	2.482538388311	0
bin	2.6166778674741	0
bin	2.7508173466372	0
bin	2.8849568258004	0
bin	3.0190963049635	1
scalar scenarioPRJP1.node[0].app 	sentPk:count 	2613
attr interpolationmode  none
attr source  sentPk
attr title  "packets sent, count"
scalar scenarioPRJP1.node[0].app 	sentPk:sum(packetBytes) 	1337856
attr interpolationmode  none
attr source  sentPk
attr title  "packets sent, sum(packetBytes)"
scalar scenarioPRJP1.node[0].udp 	droppedPkBadChecksum:count 	0
attr interpolationmode  none
attr title  "packets dropped (checksum error), count"
scalar scenarioPRJP1.node[0].udp 	droppedPkWrongPort:count 	0
attr interpolationmode  none
attr title  "packets dropped (wrong port), count"
scalar scenarioPRJP1.node[0].udp 	passedUpPk:count 	160
attr interpolationmode  none
attr title  "packets passed up, count"
scalar scenarioPRJP1.node[0].udp 	rcvdPk:count 	160
attr interpolationmode  none
attr source  rcvdPk
attr title  "packets received, count"
scalar scenarioPRJP1.node[0].udp 	rcvdPk:sum(packetBytes) 	83200
attr interpolationmode  none
attr source  rcvdPk
attr title  "packets received, sum(packetBytes)"
scalar scenarioPRJP1.node[0].udp 	sentPk:count 	2613
attr interpolationmode  none
attr source  sentPk
attr title  "packets sent, count"
scalar scenarioPRJP1.node[0].udp 	sentPk:sum(packetBytes) 	1358760
attr interpolationmode  none
attr source  sentPk
attr title  "packets sent, sum(packetBytes)"
scalar scenarioPRJP1.node[0].networkLayer.arp 	failedARPResolution:count 	358
attr title  "ARP failed resolutions, count"
scalar scenarioPRJP1.node[0].networkLayer.arp 	completedARPResolution:count 	6066
attr title  "ARP completed resolutions, count"
scalar scenarioPRJP1.node[0].networkLayer.arp 	initiatedARPResolution:count 	478
attr title  "ARP initiated resolutions, count"
scalar scenarioPRJP1.node[0].networkLayer.arp 	sentReply:count 	63
attr title  "ARP replies sent, count"
scalar scenarioPRJP1.node[0].networkLayer.arp 	sentReq:count 	1284
attr title  "ARP request sent, count"
scalar scenarioPRJP1.node[0].mobility 	startTime 	0.1
scalar scenarioPRJP1.node[0].mobility 	totalTime 	949.8
scalar scenarioPRJP1.node[0].mobility 	stopTime 	950
scalar scenarioPRJP1.node[0].mobility 	minSpeed 	2.4756172716913e-13
scalar scenarioPRJP1.node[0].mobility 	maxSpeed 	21.67199643465
scalar scenarioPRJP1.node[0].mobility 	totalDistance 	9973.9266551171
scalar scenarioPRJP1.node[0].mobility 	totalCO2Emission 	3120.6765635507
scalar scenarioPRJP1.node[0].wlan[0].mgmt 	dataQueueLen:max 	12
attr interpolationmode  sample-hold
attr title  "data queue length, max"
scalar scenarioPRJP1.node[0].wlan[0].mgmt 	dataQueueLen:timeavg 	0
attr interpolationmode  sample-hold
attr title  "data queue length, timeavg"
scalar scenarioPRJP1.node[0].wlan[0].mgmt 	dropPkByQueue:count 	0
attr interpolationmode  none
attr source  dropPkByQueue
attr title  "packets dropped by queue, count"
scalar scenarioPRJP1.node[0].wlan[0].mgmt 	dropPkByQueue:sum(packetBytes) 	0
attr interpolationmode  none
attr source  dropPkByQueue
attr title  "packets dropped by queue, sum(packetBytes)"
scalar scenarioPRJP1.node[0].wlan[0].mac 	"number of received packets" 	2291
scalar scenarioPRJP1.node[0].wlan[0].mac 	"number of collisions" 	120373
scalar scenarioPRJP1.node[0].wlan[0].mac 	"number of internal collisions" 	0
scalar scenarioPRJP1.node[0].wlan[0].mac 	"number of retry for AC 0" 	10125
scalar scenarioPRJP1.node[0].wlan[0].mac 	"number of retry for AC 1" 	0
scalar scenarioPRJP1.node[0].wlan[0].mac 	"number of retry for AC 2" 	0
scalar scenarioPRJP1.node[0].wlan[0].mac 	"number of retry for AC 3" 	0
scalar scenarioPRJP1.node[0].wlan[0].mac 	"sent and received bits" 	20237184
scalar scenarioPRJP1.node[0].wlan[0].mac 	"sent packet within AC 0" 	1102
scalar scenarioPRJP1.node[0].wlan[0].mac 	"sent packet within AC 1" 	1
scalar scenarioPRJP1.node[0].wlan[0].mac 	"sent packet within AC 2" 	0
scalar scenarioPRJP1.node[0].wlan[0].mac 	"sent packet within AC 3" 	0
scalar scenarioPRJP1.node[0].wlan[0].mac 	"sent in TXOP " 	0
scalar scenarioPRJP1.node[0].wlan[0].mac 	"sentWithoutRetry AC 0" 	840
scalar scenarioPRJP1.node[0].wlan[0].mac 	"sentWithoutRetry AC 1" 	1
scalar scenarioPRJP1.node[0].wlan[0].mac 	"sentWithoutRetry AC 2" 	0
scalar scenarioPRJP1.node[0].wlan[0].mac 	"sentWithoutRetry AC 3" 	0
scalar scenarioPRJP1.node[0].wlan[0].mac 	"numGivenUp AC 0" 	1593
scalar scenarioPRJP1.node[0].wlan[0].mac 	"numGivenUp AC 1" 	0
scalar scenarioPRJP1.node[0].wlan[0].mac 	"numGivenUp AC 2" 	0
scalar scenarioPRJP1.node[0].wlan[0].mac 	"numGivenUp AC 3" 	0
scalar scenarioPRJP1.node[0].wlan[0].mac 	"numDropped AC 0" 	0
scalar scenarioPRJP1.node[0].wlan[0].mac 	"numDropped AC 1" 	0
scalar scenarioPRJP1.node[0].wlan[0].mac 	"numDropped AC 2" 	0
scalar scenarioPRJP1.node[0].wlan[0].mac 	"numDropped AC 3" 	0
scalar scenarioPRJP1.node[0].wlan[0].mac 	rcvdPkFromLL:count 	365882
attr interpolationmode  none
attr source  packetReceivedFromLower
attr title  "packets received from lower layer, count"
scalar scenarioPRJP1.node[0].wlan[0].mac 	rcvdPkFromLL:sum(packetBytes) 	62126068
attr interpolationmode  none
attr source  packetReceivedFromLower
attr title  "packets received from lower layer, sum(packetBytes)"
scalar scenarioPRJP1.node[0].wlan[0].mac 	sentDownPk:count 	40076
attr interpolationmode  none
attr source  packetSentToLower
attr title  "packets sent to lower layer, count"
scalar scenarioPRJP1.node[0].wlan[0].mac 	sentDownPk:sum(packetBytes) 	7077094
attr interpolationmode  none
attr source  packetSentToLower
attr title  "packets sent to lower layer, sum(packetBytes)"
scalar scenarioPRJP1.node[0].wlan[0].mac 	rcvdPkFromHL:count 	27660
attr interpolationmode  none
attr source  packetReceivedFromUpper
attr title  "packets received from higher layer, count"
scalar scenarioPRJP1.node[0].wlan[0].mac 	rcvdPkFromHL:sum(packetBytes) 	3140292
attr interpolationmode  none
attr source  packetReceivedFromUpper
attr title  "packets received from higher layer, sum(packetBytes)"
scalar scenarioPRJP1.node[0].wlan[0].mac 	passedUpPk:count 	153681
attr interpolationmode  none
attr source  packetSentToUpper
attr title  "packets passed to higher layer, count"
scalar scenarioPRJP1.node[0].wlan[0].mac 	passedUpPk:sum(packetBytes) 	13773428
attr interpolationmode  none
attr source  packetSentToUpper
attr title  "packets passed to higher layer, sum(packetBytes)"
statistic scenarioPRJP1.node[0].wlan[0].radio 	radioChannel:histogram
field count 1
field mean 3
field stddev -nan
field sum 3
field sqrsum 9
field min 3
field max 3
attr interpolationmode  sample-hold
attr source  radioChannelChanged
attr title  "Radio channel, histogram"
bin	-INF	0
bin	2	0
bin	3	1
bin	4	0
scalar scenarioPRJP1.node[0].wlan[0].radio 	transmissionState:count 	160304
attr interpolationmode  sample-hold
attr source  transmissionStateChanged
attr title  "Radio transmission state, count"
scalar scenarioPRJP1.node[0].wlan[0].radio 	receptionState:count 	858834
attr interpolationmode  sample-hold
attr source  receptionStateChanged
attr title  "Radio reception state, count"
scalar scenarioPRJP1.node[0].wlan[0].radio 	radioMode:count 	80154
attr interpolationmode  sample-hold
attr source  radioModeChanged
attr title  "Radio mode, count"
statistic scenarioPRJP1.node[0].wlan[0].radio 	symbolErrorRate:histogram
field count 0
field mean -nan
field stddev -nan
field sum 0
field sqrsum 0
field min -nan
field max -nan
attr source  symbolErrorRate
attr title  "Symbol error rate, histogram"
bin	-INF	0
bin	-0.5	0
bin	-0.46666666666667	0
bin	-0.43333333333333	0
bin	-0.4	0
bin	-0.36666666666667	0
bin	-0.33333333333333	0
bin	-0.3	0
bin	-0.26666666666667	0
bin	-0.23333333333333	0
bin	-0.2	0
bin	-0.16666666666667	0
bin	-0.13333333333333	0
bin	-0.1	0
bin	-0.066666666666667	0
bin	-0.033333333333333	0
bin	0	0
bin	0.033333333333333	0
bin	0.066666666666667	0
bin	0.1	0
bin	0.13333333333333	0
bin	0.16666666666667	0
bin	0.2	0
bin	0.23333333333333	0
bin	0.26666666666667	0
bin	0.3	0
bin	0.33333333333333	0
bin	0.36666666666667	0
bin	0.4	0
bin	0.43333333333333	0
bin	0.46666666666667	0
bin	0.5	0
statistic scenarioPRJP1.node[0].wlan[0].radio 	bitErrorRate:histogram
field count 0
field mean -nan
field stddev -nan
field sum 0
field sqrsum 0
field min -nan
field max -nan
attr source  bitErrorRate
attr title  "Bit error rate, histogram"
bin	-INF	0
bin	-0.5	0
bin	-0.46666666666667	0
bin	-0.43333333333333	0
bin	-0.4	0
bin	-0.36666666666667	0
bin	-0.33333333333333	0
bin	-0.3	0
bin	-0.26666666666667	0
bin	-0.23333333333333	0
bin	-0.2	0
bin	-0.16666666666667	0
bin	-0.13333333333333	0
bin	-0.1	0
bin	-0.066666666666667	0
bin	-0.033333333333333	0
bin	0	0
bin	0.033333333333333	0
bin	0.066666666666667	0
bin	0.1	0
bin	0.13333333333333	0
bin	0.16666666666667	0
bin	0.2	0
bin	0.23333333333333	0
bin	0.26666666666667	0
bin	0.3	0
bin	0.33333333333333	0
bin	0.36666666666667	0
bin	0.4	0
bin	0.43333333333333	0
bin	0.46666666666667	0
bin	0.5	0
statistic scenarioPRJP1.node[0].wlan[0].radio 	packetErrorRate:histogram
field count 365882
field mean 0.28538548550095
field stddev 0.44157945892531
field sum 104417.41220606
field sqrsum 101143.23496676
field min 0
field max 1
attr source  packetErrorRate
attr title  "Packet error rate, histogram"
bin	-INF	0
bin	-0.5	0
bin	-0.43333333333333	0
bin	-0.36666666666667	0
bin	-0.3	0
bin	-0.23333333333333	0
bin	-0.16666666666667	0
bin	-0.1	0
bin	-0.033333333333333	247965
bin	0.033333333333333	5470
bin	0.1	2675
bin	0.16666666666667	1841
bin	0.23333333333333	1450
bin	0.3	1156
bin	0.36666666666667	1056
bin	0.43333333333333	966
bin	0.5	924
bin	0.56666666666667	839
bin	0.63333333333333	835
bin	0.7	845
bin	0.76666666666667	877
bin	0.83333333333333	1099
bin	0.9	1767
bin	0.96666666666667	96117
bin	1.0333333333333	0
bin	1.1	0
bin	1.1666666666667	0
bin	1.2333333333333	0
bin	1.3	0
bin	1.3666666666667	0
bin	1.4333333333333	0
bin	1.5	0
statistic scenarioPRJP1.node[0].wlan[0].radio 	minSNIR:histogram
field count 365882
field mean 1166.6848228321
field stddev 15159.852227057
field sum 426868976.34746
field sqrsum 84585202596722
field min 0.0001123536321376
field max 1545973.023307
attr source  minSNIR
attr title  "Min SNIR, histogram"
bin	-INF	0
bin	-217.74694482353	0
bin	-188.67428836304	0
bin	-159.60163190254	0
bin	-130.52897544205	0
bin	-101.45631898156	0
bin	-72.383662521065	0
bin	-43.311006060571	0
bin	-14.238349600078	218458
bin	14.834306860415	38913
bin	43.906963320908	14026
bin	72.979619781401	8438
bin	102.05227624189	7095
bin	131.12493270239	9133
bin	160.19758916288	6668
bin	189.27024562337	5023
bin	218.34290208387	3975
bin	247.41555854436	3293
bin	276.48821500485	2738
bin	305.56087146535	2392
bin	334.63352792584	2051
bin	363.70618438633	1762
bin	392.77884084683	1608
bin	421.85149730732	1457
bin	450.92415376781	1342
bin	479.99681022831	1229
bin	509.0694666888	1080
bin	538.14212314929	953
bin	567.21477960979	954
bin	596.28743607028	897
bin	625.36009253077	802
bin	654.43274899127	31595
scalar scenarioPRJP1.node[0].lo0.lo 	droppedPkBitError:count 	0
attr interpolationmode  none
attr source  dropPkBitError
attr title  "packets dropped/bit error, count"
scalar scenarioPRJP1.node[0].lo0.lo 	droppedPkBitError:sum(packetBytes) 	0
attr interpolationmode  none
attr source  dropPkBitError
attr title  "packets dropped/bit error, sum(packetBytes)"
scalar scenarioPRJP1.node[0].lo0.lo 	rcvdPkFromHL:count 	0
attr interpolationmode  none
attr source  packetReceivedFromUpper
attr title  "packets received from higher layer, count"
scalar scenarioPRJP1.node[0].lo0.lo 	rcvdPkFromHL:sum(packetBytes) 	0
attr interpolationmode  none
attr source  packetReceivedFromUpper
attr title  "packets received from higher layer, sum(packetBytes)"
scalar scenarioPRJP1.node[0].lo0.lo 	passedUpPk:count 	0
attr interpolationmode  none
attr source  packetSentToUpper
attr title  "packets passed to higher layer, count"
scalar scenarioPRJP1.node[0].lo0.lo 	passedUpPk:sum(packetBytes) 	0
attr interpolationmode  none
attr source  packetSentToUpper
attr title  "packets passed to higher layer, sum(packetBytes)"
scalar scenarioPRJP1.node[21].app 	"Total sent" 	2623
scalar scenarioPRJP1.node[21].app 	"Total received" 	112
scalar scenarioPRJP1.node[21].app 	"Total deleted" 	28
scalar scenarioPRJP1.node[21].app 	dropPk:count 	28
attr interpolationmode  none
attr source  dropPk
attr title  "packets dropped, count"
scalar scenarioPRJP1.node[21].app 	dropPk:sum(packetBytes) 	14336
attr interpolationmode  none
attr source  dropPk
attr title  "packets dropped, sum(packetBytes)"
scalar scenarioPRJP1.node[21].app 	outOfOrderPk:count 	13
attr interpolationmode  none
attr source  outOfOrderPk
attr title  "packets received out of order, count"
scalar scenarioPRJP1.node[21].app 	outOfOrderPk:sum(packetBytes) 	6656
attr interpolationmode  none
attr source  outOfOrderPk
attr title  "packets received out of order, sum(packetBytes)"
scalar scenarioPRJP1.node[21].app 	rcvdPk:count 	112
attr interpolationmode  none
attr source  rcvdPk
attr title  "packets received, count"
scalar scenarioPRJP1.node[21].app 	rcvdPk:sum(packetBytes) 	57344
attr interpolationmode  none
attr source  rcvdPk
attr title  "packets received, sum(packetBytes)"
statistic scenarioPRJP1.node[21].app 	endToEndDelay:histogram
field count 112
field mean 0.56230778195751
field stddev 2.4899435111454
field sum 62.978471579241
field sqrsum 723.59315910995
field min 0.000958073772
field max 19.057001797151
attr interpolationmode  none
attr source  messageAge(rcvdPk)
attr title  "delay, histogram"
attr unit  s
bin	-INF	0
bin	-9.5270637879175	0
bin	-8.2566608730256	0
bin	-6.9862579581336	0
bin	-5.7158550432417	0
bin	-4.4454521283498	0
bin	-3.1750492134578	0
bin	-1.9046462985659	0
bin	-0.63424338367397	101
bin	0.63615953121797	3
bin	1.9065624461099	4
bin	3.1769653610018	0
bin	4.4473682758938	1
bin	5.7177711907857	0
bin	6.9881741056776	0
bin	8.2585770205696	0
bin	9.5289799354615	1
bin	10.799382850353	0
bin	12.069785765245	0
bin	13.340188680137	1
bin	14.610591595029	0
bin	15.880994509921	0
bin	17.151397424813	0
bin	18.421800339705	1
bin	19.692203254597	0
bin	20.962606169489	0
bin	22.233009084381	0
bin	23.503411999273	0
bin	24.773814914165	0
bin	26.044217829057	0
bin	27.314620743949	0
bin	28.58502365884	0
scalar scenarioPRJP1.node[21].app 	sentPk:count 	2623
attr interpolationmode  none
attr source  sentPk
attr title  "packets sent, count"
scalar scenarioPRJP1.node[21].app 	sentPk:sum(packetBytes) 	1342976
attr interpolationmode  none
attr source  sentPk
attr title  "packets sent, sum(packetBytes)"
scalar scenarioPRJP1.node[21].udp 	droppedPkBadChecksum:count 	0
attr interpolationmode  none
attr title  "packets dropped (checksum error), count"
scalar scenarioPRJP1.node[21].udp 	droppedPkWrongPort:count 	0
attr interpolationmode  none
attr title  "packets dropped (wrong port), count"
scalar scenarioPRJP1.node[21].udp 	passedUpPk:count 	153
attr interpolationmode  none
attr title  "packets passed up, count"
scalar scenarioPRJP1.node[21].udp 	rcvdPk:count 	153
attr interpolationmode  none
attr source  rcvdPk
attr title  "packets received, count"
scalar scenarioPRJP1.node[21].udp 	rcvdPk:sum(packetBytes) 	79560
attr interpolationmode  none
attr source  rcvdPk
attr title  "packets received, sum(packetBytes)"
scalar scenarioPRJP1.node[21].udp 	sentPk:count 	2623
attr interpolationmode  none
attr source  sentPk
attr title  "packets sent, count"
scalar scenarioPRJP1.node[21].udp 	sentPk:sum(packetBytes) 	1363960
attr interpolationmode  none
attr source  sentPk
attr title  "packets sent, sum(packetBytes)"
scalar scenarioPRJP1.node[21].networkLayer.arp 	failedARPResolution:count 	321
attr title  "ARP failed resolutions, count"
scalar scenarioPRJP1.node[21].networkLayer.arp 	completedARPResolution:count 	5272
attr title  "ARP completed resolutions, count"
scalar scenarioPRJP1.node[21].networkLayer.arp 	initiatedARPResolution:count 	432
attr title  "ARP initiated resolutions, count"
scalar scenarioPRJP1.node[21].networkLayer.arp 	sentReply:count 	66
attr title  "ARP replies sent, count"
scalar scenarioPRJP1.node[21].networkLayer.arp 	sentReq:count 	1150
attr title  "ARP request sent, count"
scalar scenarioPRJP1.node[21].mobility 	startTime 	2.5
scalar scenarioPRJP1.node[21].mobility 	totalTime 	947.4
scalar scenarioPRJP1.node[21].mobility 	stopTime 	950
scalar scenarioPRJP1.node[21].mobility 	minSpeed 	2.475506568125e-13
scalar scenarioPRJP1.node[21].mobility 	maxSpeed 	19.979399506491
scalar scenarioPRJP1.node[21].mobility 	totalDistance 	8969.3987821703
scalar scenarioPRJP1.node[21].mobility 	totalCO2Emission 	2584.4662104935
scalar scenarioPRJP1.node[21].wlan[0].mgmt 	dataQueueLen:max 	20
attr interpolationmode  sample-hold
attr title  "data queue length, max"
scalar scenarioPRJP1.node[21].wlan[0].mgmt 	dataQueueLen:timeavg 	0
attr interpolationmode  sample-hold
attr title  "data queue length, timeavg"
scalar scenarioPRJP1.node[21].wlan[0].mgmt 	dropPkByQueue:count 	0
attr interpolationmode  none
attr source  dropPkByQueue
attr title  "packets dropped by queue, count"
scalar scenarioPRJP1.node[21].wlan[0].mgmt 	dropPkByQueue:sum(packetBytes) 	0
attr interpolationmode  none
attr source  dropPkByQueue
attr title  "packets dropped by queue, sum(packetBytes)"
scalar scenarioPRJP1.node[21].wlan[0].mac 	"number of received packets" 	2209
scalar scenarioPRJP1.node[21].wlan[0].mac 	"number of collisions" 	91683
scalar scenarioPRJP1.node[21].wlan[0].mac 	"number of internal collisions" 	0
scalar scenarioPRJP1.node[21].wlan[0].mac 	"number of retry for AC 0" 	10291
scalar scenarioPRJP1.node[21].wlan[0].mac 	"number of retry for AC 1" 	0
scalar scenarioPRJP1.node[21].wlan[0].mac 	"number of retry for AC 2" 	0
scalar scenarioPRJP1.node[21].wlan[0].mac 	"number of retry for AC 3" 	0
scalar scenarioPRJP1.node[21].wlan[0].mac 	"sent and received bits" 	18982368
scalar scenarioPRJP1.node[21].wlan[0].mac 	"sent packet within AC 0" 	970
scalar scenarioPRJP1.node[21].wlan[0].mac 	"sent packet within AC 1" 	0
scalar scenarioPRJP1.node[21].wlan[0].mac 	"sent packet within AC 2" 	0
scalar scenarioPRJP1.node[21].wlan[0].mac 	"sent packet within AC 3" 	0
scalar scenarioPRJP1.node[21].wlan[0].mac 	"sent in TXOP " 	0
scalar scenarioPRJP1.node[21].wlan[0].mac 	"sentWithoutRetry AC 0" 	695
scalar scenarioPRJP1.node[21].wlan[0].mac 	"sentWithoutRetry AC 1" 	0
scalar scenarioPRJP1.node[21].wlan[0].mac 	"sentWithoutRetry AC 2" 	0
scalar scenarioPRJP1.node[21].wlan[0].mac 	"sentWithoutRetry AC 3" 	0
scalar scenarioPRJP1.node[21].wlan[0].mac 	"numGivenUp AC 0" 	1624
scalar scenarioPRJP1.node[21].wlan[0].mac 	"numGivenUp AC 1" 	0
scalar scenarioPRJP1.node[21].wlan[0].mac 	"numGivenUp AC 2" 	0
scalar scenarioPRJP1.node[21].wlan[0].mac 	"numGivenUp AC 3" 	0
scalar scenarioPRJP1.node[21].wlan[0].mac 	"numDropped AC 0" 	0
scalar scenarioPRJP1.node[21].wlan[0].mac 	"numDropped AC 1" 	0
scalar scenarioPRJP1.node[21].wlan[0].mac 	"numDropped AC 2" 	0
scalar scenarioPRJP1.node[21].wlan[0].mac 	"numDropped AC 3" 	0
scalar scenarioPRJP1.node[21].wlan[0].mac 	rcvdPkFromLL:count 	289915
attr interpolationmode  none
attr source  packetReceivedFromLower
attr title  "packets received from lower layer, count"
scalar scenarioPRJP1.node[21].wlan[0].mac 	rcvdPkFromLL:sum(packetBytes) 	47941910
attr interpolationmode  none
attr source  packetReceivedFromLower
attr title  "packets received from lower layer, sum(packetBytes)"
scalar scenarioPRJP1.node[21].wlan[0].mac 	sentDownPk:count 	38369
attr interpolationmode  none
attr source  packetSentToLower
attr title  "packets sent to lower layer, count"
scalar scenarioPRJP1.node[21].wlan[0].mac 	sentDownPk:sum(packetBytes) 	6844826
attr interpolationmode  none
attr source  packetSentToLower
attr title  "packets sent to lower layer, sum(packetBytes)"
scalar scenarioPRJP1.node[21].wlan[0].mac 	rcvdPkFromHL:count 	25870
attr interpolationmode  none
attr source  packetReceivedFromUpper
attr title  "packets received from higher layer, count"
scalar scenarioPRJP1.node[21].wlan[0].mac 	rcvdPkFromHL:sum(packetBytes) 	2974220
attr interpolationmode  none
attr source  packetReceivedFromUpper
attr title  "packets received from higher layer, sum(packetBytes)"
scalar scenarioPRJP1.node[21].wlan[0].mac 	passedUpPk:count 	124785
attr interpolationmode  none
attr source  packetSentToUpper
attr title  "packets passed to higher layer, count"
scalar scenarioPRJP1.node[21].wlan[0].mac 	passedUpPk:sum(packetBytes) 	11209484
attr interpolationmode  none
attr source  packetSentToUpper
attr title  "packets passed to higher layer, sum(packetBytes)"
statistic scenarioPRJP1.node[21].wlan[0].radio 	radioChannel:histogram
field count 1
field mean 3
field stddev -nan
field sum 3
field sqrsum 9
field min 3
field max 3
attr interpolationmode  sample-hold
attr source  radioChannelChanged
attr title  "Radio channel, histogram"
bin	-INF	0
bin	2	0
bin	3	1
bin	4	0
scalar scenarioPRJP1.node[21].wlan[0].radio 	transmissionState:count 	153476
attr interpolationmode  sample-hold
attr source  transmissionStateChanged
attr title  "Radio transmission state, count"
scalar scenarioPRJP1.node[21].wlan[0].radio 	receptionState:count 	689094
attr interpolationmode  sample-hold
attr source  receptionStateChanged
attr title  "Radio reception state, count"
scalar scenarioPRJP1.node[21].wlan[0].radio 	radioMode:count 	76740
attr interpolationmode  sample-hold
attr source  radioModeChanged
attr title  "Radio mode, count"
statistic scenarioPRJP1.node[21].wlan[0].radio 	symbolErrorRate:histogram
field count 0
field mean -nan
field stddev -nan
field sum 0
field sqrsum 0
field min -nan
field max -nan
attr source  symbolErrorRate
attr title  "Symbol error rate, histogram"
bin	-INF	0
bin	-0.5	0
bin	-0.46666666666667	0
bin	-0.43333333333333	0
bin	-0.4	0
bin	-0.36666666666667	0
bin	-0.33333333333333	0
bin	-0.3	0
bin	-0.26666666666667	0
bin	-0.23333333333333	0
bin	-0.2	0
bin	-0.16666666666667	0
bin	-0.13333333333333	0
bin	-0.1	0
bin	-0.066666666666667	0
bin	-0.033333333333333	0
bin	0	0
bin	0.033333333333333	0
bin	0.066666666666667	0
bin	0.1	0
bin	0.13333333333333	0
bin	0.16666666666667	0
bin	0.2	0
bin	0.23333333333333	0
bin	0.26666666666667	0
bin	0.3	0
bin	0.33333333333333	0
bin	0.36666666666667	0
bin	0.4	0
bin	0.43333333333333	0
bin	0.46666666666667	0
bin	0.5	0
statistic scenarioPRJP1.node[21].wlan[0].radio 	bitErrorRate:histogram
field count 0
field mean -nan
field stddev -nan
field sum 0
field sqrsum 0
field min -nan
field max -nan
attr source  bitErrorRate
attr title  "Bit error rate, histogram"
bin	-INF	0
bin	-0.5	0
bin	-0.46666666666667	0
bin	-0.43333333333333	0
bin	-0.4	0
bin	-0.36666666666667	0
bin	-0.33333333333333	0
bin	-0.3	0
bin	-0.26666666666667	0
bin	-0.23333333333333	0
bin	-0.2	0
bin	-0.16666666666667	0
bin	-0.13333333333333	0
bin	-0.1	0
bin	-0.066666666666667	0
bin	-0.033333333333333	0
bin	0	0
bin	0.033333333333333	0
bin	0.066666666666667	0
bin	0.1	0
bin	0.13333333333333	0
bin	0.16666666666667	0
bin	0.2	0
bin	0.23333333333333	0
bin	0.26666666666667	0
bin	0.3	0
bin	0.33333333333333	0
bin	0.36666666666667	0
bin	0.4	0
bin	0.43333333333333	0
bin	0.46666666666667	0
bin	0.5	0
statistic scenarioPRJP1.node[21].wlan[0].radio 	packetErrorRate:histogram
field count 289915
field mean 0.27098284612669
field stddev 0.43397995431737
field sum 78561.991834819
field sqrsum 75890.949242416
field min 0
field max 1
attr source  packetErrorRate
attr title  "Packet error rate, histogram"
bin	-INF	0
bin	-0.5	0
bin	-0.43333333333333	0
bin	-0.36666666666667	0
bin	-0.3	0
bin	-0.23333333333333	0
bin	-0.16666666666667	0
bin	-0.1	0
bin	-0.033333333333333	200291
bin	0.033333333333333	4615
bin	0.1	2140
bin	0.16666666666667	1490
bin	0.23333333333333	1135
bin	0.3	930
bin	0.36666666666667	846
bin	0.43333333333333	768
bin	0.5	698
bin	0.56666666666667	690
bin	0.63333333333333	706
bin	0.7	743
bin	0.76666666666667	790
bin	0.83333333333333	907
bin	0.9	1445
bin	0.96666666666667	71721
bin	1.0333333333333	0
bin	1.1	0
bin	1.1666666666667	0
bin	1.2333333333333	0
bin	1.3	0
bin	1.3666666666667	0
bin	1.4333333333333	0
bin	1.5	0
statistic scenarioPRJP1.node[21].wlan[0].radio 	minSNIR:histogram
field count 289915
field mean 833.6063113591
field stddev 15923.930350151
field sum 241674973.75767
field sqrsum 73715406390422
field min 0.0001032866576891
field max 6289298.2567713
attr source  minSNIR
attr title  "Min SNIR, histogram"
bin	-INF	0
bin	-563.90221542683	0
bin	-488.69442990229	0
bin	-413.48664437776	0
bin	-338.27885885323	0
bin	-263.07107332869	0
bin	-187.86328780416	0
bin	-112.65550227963	0
bin	-37.447716755093	204767
bin	37.760068769441	25338
bin	112.96785429397	16332
bin	188.17563981851	8771
bin	263.38342534304	5055
bin	338.59121086757	3528
bin	413.79899639211	2494
bin	489.00678191664	1943
bin	564.21456744118	1623
bin	639.42235296571	1288
bin	714.63013849024	1095
bin	789.83792401478	920
bin	865.04570953931	781
bin	940.25349506384	734
bin	1015.4612805884	653
bin	1090.6690661129	564
bin	1165.8768516374	526
bin	1241.084637162	496
bin	1316.2924226865	426
bin	1391.500208211	389
bin	1466.7079937356	372
bin	1541.9157792601	322
bin	1617.1235647846	346
bin	1692.3313503092	11152
scalar scenarioPRJP1.node[21].lo0.lo 	droppedPkBitError:count 	0
attr interpolationmode  none
attr source  dropPkBitError
attr title  "packets dropped/bit error, count"
scalar scenarioPRJP1.node[21].lo0.lo 	droppedPkBitError:sum(packetBytes) 	0
attr interpolationmode  none
attr source  dropPkBitError
attr title  "packets dropped/bit error, sum(packetBytes)"
scalar scenarioPRJP1.node[21].lo0.lo 	rcvdPkFromHL:count 	0
attr interpolationmode  none
attr source  packetReceivedFromUpper
attr title  "packets received from higher layer, count"
scalar scenarioPRJP1.node[21].lo0.lo 	rcvdPkFromHL:sum(packetBytes) 	0
attr interpolationmode  none
attr source  packetReceivedFromUpper
attr title  "packets received from higher layer, sum(packetBytes)"
scalar scenarioPRJP1.node[21].lo0.lo 	passedUpPk:count 	0
attr interpolationmode  none
attr source  packetSentToUpper
attr title  "packets passed to higher layer, count"
scalar scenarioPRJP1.node[21].lo0.lo 	passedUpPk:sum(packetBytes) 	0
attr interpolationmode  none
attr source  packetSentToUpper
attr title  "packets passed to higher layer, sum(packetBytes)"
scalar scenarioPRJP1.node[42].app 	"Total sent" 	2612
scalar scenarioPRJP1.node[42].app 	"Total received" 	129
scalar scenarioPRJP1.node[42].app 	"Total deleted" 	39
scalar scenarioPRJP1.node[42].app 	dropPk:count 	39
attr interpolationmode  none
attr source  dropPk
attr title  "packets dropped, count"
scalar scenarioPRJP1.node[42].app 	dropPk:sum(packetBytes) 	19968
attr interpolationmode  none
attr source  dropPk
attr title  "packets dropped, sum(packetBytes)"
scalar scenarioPRJP1.node[42].app 	outOfOrderPk:count 	3
attr interpolationmode  none
attr source  outOfOrderPk
attr title  "packets received out of order, count"
scalar scenarioPRJP1.node[42].app 	outOfOrderPk:sum(packetBytes) 	1536
attr interpolationmode  none
attr source  outOfOrderPk
attr title  "packets received out of order, sum(packetBytes)"
scalar scenarioPRJP1.node[42].app 	rcvdPk:count 	129
attr interpolationmode  none
attr source  rcvdPk
attr title  "packets received, count"
scalar scenarioPRJP1.node[42].app 	rcvdPk:sum(packetBytes) 	66048
attr interpolationmode  none
attr source  rcvdPk
attr title  "packets received, sum(packetBytes)"
statistic scenarioPRJP1.node[42].app 	endToEndDelay:histogram
field count 129
field mean 0.61949837278981
field stddev 2.1610541011917
field sum 79.915290089885
field sqrsum 647.28721019125
field min 0.000945011007
field max 16.656295434579
attr interpolationmode  none
attr source  messageAge(rcvdPk)
attr title  "delay, histogram"
attr unit  s
bin	-INF	0
bin	-7.210962271105	0
bin	-6.2493728936459	0
bin	-5.2877835161869	0
bin	-4.3261941387278	0
bin	-3.3646047612687	0
bin	-2.4030153838097	0
bin	-1.4414260063506	0
bin	-0.47983662889153	106
bin	0.48175274856753	7
bin	1.4433421260266	9
bin	2.4049315034857	2
bin	3.3665208809447	1
bin	4.3281102584038	0
bin	5.2896996358629	0
bin	6.2512890133219	2
bin	7.212878390781	0
bin	8.1744677682401	0
bin	9.1360571456991	0
bin	10.097646523158	0
bin	11.059235900617	0
bin	12.020825278076	0
bin	12.982414655535	0
bin	13.944004032994	1
bin	14.905593410454	0
bin	15.867182787913	1
bin	16.828772165372	0
bin	17.790361542831	0
bin	18.75195092029	0
bin	19.713540297749	0
bin	20.675129675208	0
bin	21.636719052667	0
scalar scenarioPRJP1.node[42].app 	sentPk:count 	2612
attr interpolationmode  none
attr source  sentPk
attr title  "packets sent, count"
scalar scenarioPRJP1.node[42].app 	sentPk:sum(packetBytes) 	1337344
attr interpolationmode  none
attr source  sentPk
attr title  "packets sent, sum(packetBytes)"
scalar scenarioPRJP1.node[42].udp 	droppedPkBadChecksum:count 	0
attr interpolationmode  none
attr title  "packets dropped (checksum error), count"
scalar scenarioPRJP1.node[42].udp 	droppedPkWrongPort:count 	0
attr interpolationmode  none
attr title  "packets dropped (wrong port), count"
scalar scenarioPRJP1.node[42].udp 	passedUpPk:count 	171
attr interpolationmode  none
attr title  "packets passed up, count"
scalar scenarioPRJP1.node[42].udp 	rcvdPk:count 	171
attr interpolationmode  none
attr source  rcvdPk
attr title  "packets received, count"
scalar scenarioPRJP1.node[42].udp 	rcvdPk:sum(packetBytes) 	88920
attr interpolationmode  none
attr source  rcvdPk
attr title  "packets received, sum(packetBytes)"
scalar scenarioPRJP1.node[42].udp 	sentPk:count 	2612
attr interpolationmode  none
attr source  sentPk
attr title  "packets sent, count"
scalar scenarioPRJP1.node[42].udp 	sentPk:sum(packetBytes) 	1358240
attr interpolationmode  none
attr source  sentPk
attr title  "packets sent, sum(packetBytes)"
scalar scenarioPRJP1.node[42].networkLayer.arp 	failedARPResolution:count 	376
attr title  "ARP failed resolutions, count"
scalar scenarioPRJP1.node[42].networkLayer.arp 	completedARPResolution:count 	4734
attr title  "ARP completed resolutions, count"
scalar scenarioPRJP1.node[42].networkLayer.arp 	initiatedARPResolution:count 	492
attr title  "ARP initiated resolutions, count"
scalar scenarioPRJP1.node[42].networkLayer.arp 	sentReply:count 	66
attr title  "ARP replies sent, count"
scalar scenarioPRJP1.node[42].networkLayer.arp 	sentReq:count 	1330
attr title  "ARP request sent, count"
scalar scenarioPRJP1.node[42].mobility 	startTime 	4.9
scalar scenarioPRJP1.node[42].mobility 	totalTime 	945
scalar scenarioPRJP1.node[42].mobility 	stopTime 	950
scalar scenarioPRJP1.node[42].mobility 	minSpeed 	2.4755531614973e-13
scalar scenarioPRJP1.node[42].mobility 	maxSpeed 	16.839033812439
scalar scenarioPRJP1.node[42].mobility 	totalDistance 	8853.1584483942
scalar scenarioPRJP1.node[42].mobility 	totalCO2Emission 	2375.9397521685
scalar scenarioPRJP1.node[42].wlan[0].mgmt 	dataQueueLen:max 	18
attr interpolationmode  sample-hold
attr title  "data queue length, max"
scalar scenarioPRJP1.node[42].wlan[0].mgmt 	dataQueueLen:timeavg 	0
attr interpolationmode  sample-hold
attr title  "data queue length, timeavg"
scalar scenarioPRJP1.node[42].wlan[0].mgmt 	dropPkByQueue:count 	0
attr interpolationmode  none
attr source  dropPkByQueue
attr title  "packets dropped by queue, count"
scalar scenarioPRJP1.node[42].wlan[0].mgmt 	dropPkByQueue:sum(packetBytes) 	0
attr interpolationmode  none
attr source  dropPkByQueue
attr title  "packets dropped by queue, sum(packetBytes)"
scalar scenarioPRJP1.node[42].wlan[0].mac 	"number of received packets" 	3214
scalar scenarioPRJP1.node[42].wlan[0].mac 	"number of collisions" 	89373
scalar scenarioPRJP1.node[42].wlan[0].mac 	"number of internal collisions" 	0
scalar scenarioPRJP1.node[42].wlan[0].mac 	"number of retry for AC 0" 	9847
scalar scenarioPRJP1.node[42].wlan[0].mac 	"number of retry for AC 1" 	0
scalar scenarioPRJP1.node[42].wlan[0].mac 	"number of retry for AC 2" 	0
scalar scenarioPRJP1.node[42].wlan[0].mac 	"number of retry for AC 3" 	0
scalar scenarioPRJP1.node[42].wlan[0].mac 	"sent and received bits" 	19803392
scalar scenarioPRJP1.node[42].wlan[0].mac 	"sent packet within AC 0" 	1792
scalar scenarioPRJP1.node[42].wlan[0].mac 	"sent packet within AC 1" 	4
scalar scenarioPRJP1.node[42].wlan[0].mac 	"sent packet within AC 2" 	0
scalar scenarioPRJP1.node[42].wlan[0].mac 	"sent packet within AC 3" 	0
scalar scenarioPRJP1.node[42].wlan[0].mac 	"sent in TXOP " 	0
scalar scenarioPRJP1.node[42].wlan[0].mac 	"sentWithoutRetry AC 0" 	1521
scalar scenarioPRJP1.node[42].wlan[0].mac 	"sentWithoutRetry AC 1" 	4
scalar scenarioPRJP1.node[42].wlan[0].mac 	"sentWithoutRetry AC 2" 	0
scalar scenarioPRJP1.node[42].wlan[0].mac 	"sentWithoutRetry AC 3" 	0
scalar scenarioPRJP1.node[42].wlan[0].mac 	"numGivenUp AC 0" 	1555
scalar scenarioPRJP1.node[42].wlan[0].mac 	"numGivenUp AC 1" 	0
scalar scenarioPRJP1.node[42].wlan[0].mac 	"numGivenUp AC 2" 	0
scalar scenarioPRJP1.node[42].wlan[0].mac 	"numGivenUp AC 3" 	0
scalar scenarioPRJP1.node[42].wlan[0].mac 	"numDropped AC 0" 	0
scalar scenarioPRJP1.node[42].wlan[0].mac 	"numDropped AC 1" 	0
scalar scenarioPRJP1.node[42].wlan[0].mac 	"numDropped AC 2" 	0
scalar scenarioPRJP1.node[42].wlan[0].mac 	"numDropped AC 3" 	0
scalar scenarioPRJP1.node[42].wlan[0].mac 	rcvdPkFromLL:count 	283065
attr interpolationmode  none
attr source  packetReceivedFromLower
attr title  "packets received from lower layer, count"
scalar scenarioPRJP1.node[42].wlan[0].mac 	rcvdPkFromLL:sum(packetBytes) 	47718362
attr interpolationmode  none
attr source  packetReceivedFromLower
attr title  "packets received from lower layer, sum(packetBytes)"
scalar scenarioPRJP1.node[42].wlan[0].mac 	sentDownPk:count 	39792
attr interpolationmode  none
attr source  packetSentToLower
attr title  "packets sent to lower layer, count"
scalar scenarioPRJP1.node[42].wlan[0].mac 	sentDownPk:sum(packetBytes) 	6744708
attr interpolationmode  none
attr source  packetSentToLower
attr title  "packets sent to lower layer, sum(packetBytes)"
scalar scenarioPRJP1.node[42].wlan[0].mac 	rcvdPkFromHL:count 	26755
attr interpolationmode  none
attr source  packetReceivedFromUpper
attr title  "packets received from higher layer, count"
scalar scenarioPRJP1.node[42].wlan[0].mac 	rcvdPkFromHL:sum(packetBytes) 	3055232
attr interpolationmode  none
attr source  packetReceivedFromUpper
attr title  "packets received from higher layer, sum(packetBytes)"
scalar scenarioPRJP1.node[42].wlan[0].mac 	passedUpPk:count 	122591
attr interpolationmode  none
attr source  packetSentToUpper
attr title  "packets passed to higher layer, count"
scalar scenarioPRJP1.node[42].wlan[0].mac 	passedUpPk:sum(packetBytes) 	11121336
attr interpolationmode  none
attr source  packetSentToUpper
attr title  "packets passed to higher layer, sum(packetBytes)"
statistic scenarioPRJP1.node[42].wlan[0].radio 	radioChannel:histogram
field count 1
field mean 3
field stddev -nan
field sum 3
field sqrsum 9
field min 3
field max 3
attr interpolationmode  sample-hold
attr source  radioChannelChanged
attr title  "Radio channel, histogram"
bin	-INF	0
bin	2	0
bin	3	1
bin	4	0
scalar scenarioPRJP1.node[42].wlan[0].radio 	transmissionState:count 	159168
attr interpolationmode  sample-hold
attr source  transmissionStateChanged
attr title  "Radio transmission state, count"
scalar scenarioPRJP1.node[42].wlan[0].radio 	receptionState:count 	677398
attr interpolationmode  sample-hold
attr source  receptionStateChanged
attr title  "Radio reception state, count"
scalar scenarioPRJP1.node[42].wlan[0].radio 	radioMode:count 	79586
attr interpolationmode  sample-hold
attr source  radioModeChanged
attr title  "Radio mode, count"
statistic scenarioPRJP1.node[42].wlan[0].radio 	symbolErrorRate:histogram
field count 0
field mean -nan
field stddev -nan
field sum 0
field sqrsum 0
field min -nan
field max -nan
attr source  symbolErrorRate
attr title  "Symbol error rate, histogram"
bin	-INF	0
bin	-0.5	0
bin	-0.46666666666667	0
bin	-0.43333333333333	0
bin	-0.4	0
bin	-0.36666666666667	0
bin	-0.33333333333333	0
bin	-0.3	0
bin	-0.26666666666667	0
bin	-0.23333333333333	0
bin	-0.2	0
bin	-0.16666666666667	0
bin	-0.13333333333333	0
bin	-0.1	0
bin	-0.066666666666667	0
bin	-0.033333333333333	0
bin	0	0
bin	0.033333333333333	0
bin	0.066666666666667	0
bin	0.1	0
bin	0.13333333333333	0
bin	0.16666666666667	0
bin	0.2	0
bin	0.23333333333333	0
bin	0.26666666666667	0
bin	0.3	0
bin	0.33333333333333	0
bin	0.36666666666667	0
bin	0.4	0
bin	0.43333333333333	0
bin	0.46666666666667	0
bin	0.5	0
statistic scenarioPRJP1.node[42].wlan[0].radio 	bitErrorRate:histogram
field count 0
field mean -nan
field stddev -nan
field sum 0
field sqrsum 0
field min -nan
field max -nan
attr source  bitErrorRate
attr title  "Bit error rate, histogram"
bin	-INF	0
bin	-0.5	0
bin	-0.46666666666667	0
bin	-0.43333333333333	0
bin	-0.4	0
bin	-0.36666666666667	0
bin	-0.33333333333333	0
bin	-0.3	0
bin	-0.26666666666667	0
bin	-0.23333333333333	0
bin	-0.2	0
bin	-0.16666666666667	0
bin	-0.13333333333333	0
bin	-0.1	0
bin	-0.066666666666667	0
bin	-0.033333333333333	0
bin	0	0
bin	0.033333333333333	0
bin	0.066666666666667	0
bin	0.1	0
bin	0.13333333333333	0
bin	0.16666666666667	0
bin	0.2	0
bin	0.23333333333333	0
bin	0.26666666666667	0
bin	0.3	0
bin	0.33333333333333	0
bin	0.36666666666667	0
bin	0.4	0
bin	0.43333333333333	0
bin	0.46666666666667	0
bin	0.5	0
statistic scenarioPRJP1.node[42].wlan[0].radio 	packetErrorRate:histogram
field count 283065
field mean 0.26946537485141
field stddev 0.43305270836559
field sum 76276.216332313
field sqrsum 73638.106890765
field min 0
field max 1
attr source  packetErrorRate
attr title  "Packet error rate, histogram"
bin	-INF	0
bin	-0.5	0
bin	-0.43333333333333	0
bin	-0.36666666666667	0
bin	-0.3	0
bin	-0.23333333333333	0
bin	-0.16666666666667	0
bin	-0.1	0
bin	-0.033333333333333	195869
bin	0.033333333333333	4441
bin	0.1	2163
bin	0.16666666666667	1486
bin	0.23333333333333	1121
bin	0.3	978
bin	0.36666666666667	872
bin	0.43333333333333	787
bin	0.5	683
bin	0.56666666666667	712
bin	0.63333333333333	673
bin	0.7	666
bin	0.76666666666667	721
bin	0.83333333333333	911
bin	0.9	1364
bin	0.96666666666667	69618
bin	1.0333333333333	0
bin	1.1	0
bin	1.1666666666667	0
bin	1.2333333333333	0
bin	1.3	0
bin	1.3666666666667	0
bin	1.4333333333333	0
bin	1.5	0
statistic scenarioPRJP1.node[42].wlan[0].radio 	minSNIR:histogram
field count 283065
field mean 1046.0761488987
field stddev 13252.297788745
field sum 296107545.08802
field sqrsum 50022412198697
field min 5.6816258275247e-05
field max 1608335.4382395
attr source  minSNIR
attr title  "Min SNIR, histogram"
bin	-INF	0
bin	-1193.378069951	0
bin	-1034.249269999	0
bin	-875.12047004694	0
bin	-715.99167009492	0
bin	-556.86287014291	0
bin	-397.73407019089	0
bin	-238.60527023887	0
bin	-79.47647028685	214059
bin	79.652329665169	29201
bin	238.78112961719	10102
bin	397.90992956921	4975
bin	557.03872952122	3114
bin	716.16752947324	2180
bin	875.29632942526	1647
bin	1034.4251293773	1332
bin	1193.5539293293	1052
bin	1352.6827292813	898
bin	1511.8115292333	753
bin	1670.9403291854	662
bin	1830.0691291374	601
bin	1989.1979290894	562
bin	2148.3267290414	493
bin	2307.4555289934	407
bin	2466.5843289454	400
bin	2625.7131288975	373
bin	2784.8419288495	330
bin	2943.9707288015	298
bin	3103.0995287535	288
bin	3262.2283287055	285
bin	3421.3571286576	263
bin	3580.4859286096	8790
scalar scenarioPRJP1.node[42].lo0.lo 	droppedPkBitError:count 	0
attr interpolationmode  none
attr source  dropPkBitError
attr title  "packets dropped/bit error, count"
scalar scenarioPRJP1.node[42].lo0.lo 	droppedPkBitError:sum(packetBytes) 	0
attr interpolationmode  none
attr source  dropPkBitError
attr title  "packets dropped/bit error, sum(packetBytes)"
scalar scenarioPRJP1.node[42].lo0.lo 	rcvdPkFromHL:count 	1
attr interpolationmode  none
attr source  packetReceivedFromUpper
attr title  "packets received from higher layer, count"
scalar scenarioPRJP1.node[42].lo0.lo 	rcvdPkFromHL:sum(packetBytes) 	56
attr interpolationmode  none
attr source  packetReceivedFromUpper
attr title  "packets received from higher layer, sum(packetBytes)"
scalar scenarioPRJP1.node[42].lo0.lo 	passedUpPk:count 	1
attr interpolationmode  none
attr source  packetSentToUpper
attr title  "packets passed to higher layer, count"
scalar scenarioPRJP1.node[42].lo0.lo 	passedUpPk:sum(packetBytes) 	56
attr interpolationmode  none
attr source  packetSentToUpper
attr title  "packets passed to higher layer, sum(packetBytes)"
scalar scenarioPRJP1.node[62].app 	"Total sent" 	2605
scalar scenarioPRJP1.node[62].app 	"Total received" 	108
scalar scenarioPRJP1.node[62].app 	"Total deleted" 	37
scalar scenarioPRJP1.node[62].app 	dropPk:count 	37
attr interpolationmode  none
attr source  dropPk
attr title  "packets dropped, count"
scalar scenarioPRJP1.node[62].app 	dropPk:sum(packetBytes) 	18944
attr interpolationmode  none
attr source  dropPk
attr title  "packets dropped, sum(packetBytes)"
scalar scenarioPRJP1.node[62].app 	outOfOrderPk:count 	5
attr interpolationmode  none
attr source  outOfOrderPk
attr title  "packets received out of order, count"
scalar scenarioPRJP1.node[62].app 	outOfOrderPk:sum(packetBytes) 	2560
attr interpolationmode  none
attr source  outOfOrderPk
attr title  "packets received out of order, sum(packetBytes)"
scalar scenarioPRJP1.node[62].app 	rcvdPk:count 	108
attr interpolationmode  none
attr source  rcvdPk
attr title  "packets received, count"
scalar scenarioPRJP1.node[62].app 	rcvdPk:sum(packetBytes) 	55296
attr interpolationmode  none
attr source  rcvdPk
attr title  "packets received, sum(packetBytes)"
statistic scenarioPRJP1.node[62].app 	endToEndDelay:histogram
field count 108
field mean 0.73905194586135
field stddev 2.7041745200851
field sum 79.817610153026
field sqrsum 841.43326245091
field min 0.000945011007
field max 19.091884321873
attr interpolationmode  none
attr source  messageAge(rcvdPk)
attr title  "delay, histogram"
attr unit  s
bin	-INF	0
bin	-9.544524644426	0
bin	-8.2717953570349	0
bin	-6.9990660696439	0
bin	-5.7263367822528	0
bin	-4.4536074948617	0
bin	-3.1808782074707	0
bin	-1.9081489200796	0
bin	-0.63541963268853	95
bin	0.63730965470253	4
bin	1.9100389420936	2
bin	3.1827682294847	2
bin	4.4554975168757	0
bin	5.7282268042668	0
bin	7.0009560916579	1
bin	8.2736853790489	1
bin	9.54641466644	0
bin	10.819143953831	2
bin	12.091873241222	0
bin	13.364602528613	0
bin	14.637331816004	0
bin	15.910061103395	0
bin	17.182790390786	0
bin	18.455519678177	1
bin	19.728248965569	0
bin	21.00097825296	0
bin	22.273707540351	0
bin	23.546436827742	0
bin	24.819166115133	0
bin	26.091895402524	0
bin	27.364624689915	0
bin	28.637353977306	0
scalar scenarioPRJP1.node[62].app 	sentPk:count 	2605
attr interpolationmode  none
attr source  sentPk
attr title  "packets sent, count"
scalar scenarioPRJP1.node[62].app 	sentPk:sum(packetBytes) 	1333760
attr interpolationmode  none
attr source  sentPk
attr title  "packets sent, sum(packetBytes)"
scalar scenarioPRJP1.node[62].udp 	droppedPkBadChecksum:count 	0
attr interpolationmode  none
attr title  "packets dropped (checksum error), count"
scalar scenarioPRJP1.node[62].udp 	droppedPkWrongPort:count 	0
attr interpolationmode  none
attr title  "packets dropped (wrong port), count"
scalar scenarioPRJP1.node[62].udp 	passedUpPk:count 	150
attr interpolationmode  none
attr title  "packets passed up, count"
scalar scenarioPRJP1.node[62].udp 	rcvdPk:count 	150
attr interpolationmode  none
attr source  rcvdPk
attr title  "packets received, count"
scalar scenarioPRJP1.node[62].udp 	rcvdPk:sum(packetBytes) 	78000
attr interpolationmode  none
attr source  rcvdPk
attr title  "packets received, sum(packetBytes)"
scalar scenarioPRJP1.node[62].udp 	sentPk:count 	2605
attr interpolationmode  none
attr source  sentPk
attr title  "packets sent, count"
scalar scenarioPRJP1.node[62].udp 	sentPk:sum(packetBytes) 	1354600
attr interpolationmode  none
attr source  sentPk
attr title  "packets sent, sum(packetBytes)"
scalar scenarioPRJP1.node[62].networkLayer.arp 	failedARPResolution:count 	344
attr title  "ARP failed resolutions, count"
scalar scenarioPRJP1.node[62].networkLayer.arp 	completedARPResolution:count 	4347
attr title  "ARP completed resolutions, count"
scalar scenarioPRJP1.node[62].networkLayer.arp 	initiatedARPResolution:count 	447
attr title  "ARP initiated resolutions, count"
scalar scenarioPRJP1.node[62].networkLayer.arp 	sentReply:count 	60
attr title  "ARP replies sent, count"
scalar scenarioPRJP1.node[62].networkLayer.arp 	sentReq:count 	1216
attr title  "ARP request sent, count"
scalar scenarioPRJP1.node[62].mobility 	startTime 	7.3
scalar scenarioPRJP1.node[62].mobility 	totalTime 	942.6
scalar scenarioPRJP1.node[62].mobility 	stopTime 	950
scalar scenarioPRJP1.node[62].mobility 	minSpeed 	2.4755147686565e-13
scalar scenarioPRJP1.node[62].mobility 	maxSpeed 	15.633437504909
scalar scenarioPRJP1.node[62].mobility 	totalDistance 	9340.7083852834
scalar scenarioPRJP1.node[62].mobility 	totalCO2Emission 	2316.6752369009
scalar scenarioPRJP1.node[62].wlan[0].mgmt 	dataQueueLen:max 	25
attr interpolationmode  sample-hold
attr title  "data queue length, max"
scalar scenarioPRJP1.node[62].wlan[0].mgmt 	dataQueueLen:timeavg 	0
attr interpolationmode  sample-hold
attr title  "data queue length, timeavg"
scalar scenarioPRJP1.node[62].wlan[0].mgmt 	dropPkByQueue:count 	0
attr interpolationmode  none
attr source  dropPkByQueue
attr title  "packets dropped by queue, count"
scalar scenarioPRJP1.node[62].wlan[0].mgmt 	dropPkByQueue:sum(packetBytes) 	0
attr interpolationmode  none
attr source  dropPkByQueue
attr title  "packets dropped by queue, sum(packetBytes)"
scalar scenarioPRJP1.node[62].wlan[0].mac 	"number of received packets" 	1902
scalar scenarioPRJP1.node[62].wlan[0].mac 	"number of collisions" 	92915
scalar scenarioPRJP1.node[62].wlan[0].mac 	"number of internal collisions" 	0
scalar scenarioPRJP1.node[62].wlan[0].mac 	"number of retry for AC 0" 	9568
scalar scenarioPRJP1.node[62].wlan[0].mac 	"number of retry for AC 1" 	0
scalar scenarioPRJP1.node[62].wlan[0].mac 	"number of retry for AC 2" 	0
scalar scenarioPRJP1.node[62].wlan[0].mac 	"number of retry for AC 3" 	0
scalar scenarioPRJP1.node[62].wlan[0].mac 	"sent and received bits" 	19277312
scalar scenarioPRJP1.node[62].wlan[0].mac 	"sent packet within AC 0" 	837
scalar scenarioPRJP1.node[62].wlan[0].mac 	"sent packet within AC 1" 	0
scalar scenarioPRJP1.node[62].wlan[0].mac 	"sent packet within AC 2" 	0
scalar scenarioPRJP1.node[62].wlan[0].mac 	"sent packet within AC 3" 	0
scalar scenarioPRJP1.node[62].wlan[0].mac 	"sent in TXOP " 	0
scalar scenarioPRJP1.node[62].wlan[0].mac 	"sentWithoutRetry AC 0" 	620
scalar scenarioPRJP1.node[62].wlan[0].mac 	"sentWithoutRetry AC 1" 	0
scalar scenarioPRJP1.node[62].wlan[0].mac 	"sentWithoutRetry AC 2" 	0
scalar scenarioPRJP1.node[62].wlan[0].mac 	"sentWithoutRetry AC 3" 	0
scalar scenarioPRJP1.node[62].wlan[0].mac 	"numGivenUp AC 0" 	1519
scalar scenarioPRJP1.node[62].wlan[0].mac 	"numGivenUp AC 1" 	0
scalar scenarioPRJP1.node[62].wlan[0].mac 	"numGivenUp AC 2" 	0
scalar scenarioPRJP1.node[62].wlan[0].mac 	"numGivenUp AC 3" 	0
scalar scenarioPRJP1.node[62].wlan[0].mac 	"numDropped AC 0" 	0
scalar scenarioPRJP1.node[62].wlan[0].mac 	"numDropped AC 1" 	0
scalar scenarioPRJP1.node[62].wlan[0].mac 	"numDropped AC 2" 	0
scalar scenarioPRJP1.node[62].wlan[0].mac 	"numDropped AC 3" 	0
scalar scenarioPRJP1.node[62].wlan[0].mac 	rcvdPkFromLL:count 	282455
attr interpolationmode  none
attr source  packetReceivedFromLower
attr title  "packets received from lower layer, count"
scalar scenarioPRJP1.node[62].wlan[0].mac 	rcvdPkFromLL:sum(packetBytes) 	48012164
attr interpolationmode  none
attr source  packetReceivedFromLower
attr title  "packets received from lower layer, sum(packetBytes)"
scalar scenarioPRJP1.node[62].wlan[0].mac 	sentDownPk:count 	38131
attr interpolationmode  none
attr source  packetSentToLower
attr title  "packets sent to lower layer, count"
scalar scenarioPRJP1.node[62].wlan[0].mac 	sentDownPk:sum(packetBytes) 	6588192
attr interpolationmode  none
attr source  packetSentToLower
attr title  "packets sent to lower layer, sum(packetBytes)"
scalar scenarioPRJP1.node[62].wlan[0].mac 	rcvdPkFromHL:count 	26661
attr interpolationmode  none
attr source  packetReceivedFromUpper
attr title  "packets received from higher layer, count"
scalar scenarioPRJP1.node[62].wlan[0].mac 	rcvdPkFromHL:sum(packetBytes) 	2974572
attr interpolationmode  none
attr source  packetReceivedFromUpper
attr title  "packets received from higher layer, sum(packetBytes)"
scalar scenarioPRJP1.node[62].wlan[0].mac 	passedUpPk:count 	118923
attr interpolationmode  none
attr source  packetSentToUpper
attr title  "packets passed to higher layer, count"
scalar scenarioPRJP1.node[62].wlan[0].mac 	passedUpPk:sum(packetBytes) 	10672704
attr interpolationmode  none
attr source  packetSentToUpper
attr title  "packets passed to higher layer, sum(packetBytes)"
statistic scenarioPRJP1.node[62].wlan[0].radio 	radioChannel:histogram
field count 1
field mean 3
field stddev -nan
field sum 3
field sqrsum 9
field min 3
field max 3
attr interpolationmode  sample-hold
attr source  radioChannelChanged
attr title  "Radio channel, histogram"
bin	-INF	0
bin	2	0
bin	3	1
bin	4	0
scalar scenarioPRJP1.node[62].wlan[0].radio 	transmissionState:count 	152524
attr interpolationmode  sample-hold
attr source  transmissionStateChanged
attr title  "Radio transmission state, count"
scalar scenarioPRJP1.node[62].wlan[0].radio 	receptionState:count 	670528
attr interpolationmode  sample-hold
attr source  receptionStateChanged
attr title  "Radio reception state, count"
scalar scenarioPRJP1.node[62].wlan[0].radio 	radioMode:count 	76264
attr interpolationmode  sample-hold
attr source  radioModeChanged
attr title  "Radio mode, count"
statistic scenarioPRJP1.node[62].wlan[0].radio 	symbolErrorRate:histogram
field count 0
field mean -nan
field stddev -nan
field sum 0
field sqrsum 0
field min -nan
field max -nan
attr source  symbolErrorRate
attr title  "Symbol error rate, histogram"
bin	-INF	0
bin	-0.5	0
bin	-0.46666666666667	0
bin	-0.43333333333333	0
bin	-0.4	0
bin	-0.36666666666667	0
bin	-0.33333333333333	0
bin	-0.3	0
bin	-0.26666666666667	0
bin	-0.23333333333333	0
bin	-0.2	0
bin	-0.16666666666667	0
bin	-0.13333333333333	0
bin	-0.1	0
bin	-0.066666666666667	0
bin	-0.033333333333333	0
bin	0	0
bin	0.033333333333333	0
bin	0.066666666666667	0
bin	0.1	0
bin	0.13333333333333	0
bin	0.16666666666667	0
bin	0.2	0
bin	0.23333333333333	0
bin	0.26666666666667	0
bin	0.3	0
bin	0.33333333333333	0
bin	0.36666666666667	0
bin	0.4	0
bin	0.43333333333333	0
bin	0.46666666666667	0
bin	0.5	0
statistic scenarioPRJP1.node[62].wlan[0].radio 	bitErrorRate:histogram
field count 0
field mean -nan
field stddev -nan
field sum 0
field sqrsum 0
field min -nan
field max -nan
attr source  bitErrorRate
attr title  "Bit error rate, histogram"
bin	-INF	0
bin	-0.5	0
bin	-0.46666666666667	0
bin	-0.43333333333333	0
bin	-0.4	0
bin	-0.36666666666667	0
bin	-0.33333333333333	0
bin	-0.3	0
bin	-0.26666666666667	0
bin	-0.23333333333333	0
bin	-0.2	0
bin	-0.16666666666667	0
bin	-0.13333333333333	0
bin	-0.1	0
bin	-0.066666666666667	0
bin	-0.033333333333333	0
bin	0	0
bin	0.033333333333333	0
bin	0.066666666666667	0
bin	0.1	0
bin	0.13333333333333	0
bin	0.16666666666667	0
bin	0.2	0
bin	0.23333333333333	0
bin	0.26666666666667	0
bin	0.3	0
bin	0.33333333333333	0
bin	0.36666666666667	0
bin	0.4	0
bin	0.43333333333333	0
bin	0.46666666666667	0
bin	0.5	0
statistic scenarioPRJP1.node[62].wlan[0].radio 	packetErrorRate:histogram
field count 282455
field mean 0.2812854221533
field stddev 0.43849794500513
field sum 79450.473914311
field sqrsum 76658.641690747
field min 0
field max 1
attr source  packetErrorRate
attr title  "Packet error rate, histogram"
bin	-INF	0
bin	-0.5	0
bin	-0.43333333333333	0
bin	-0.36666666666667	0
bin	-0.3	0
bin	-0.23333333333333	0
bin	-0.16666666666667	0
bin	-0.1	0
bin	-0.033333333333333	191497
bin	0.033333333333333	4708
bin	0.1	2270
bin	0.16666666666667	1574
bin	0.23333333333333	1217
bin	0.3	989
bin	0.36666666666667	890
bin	0.43333333333333	816
bin	0.5	698
bin	0.56666666666667	721
bin	0.63333333333333	703
bin	0.7	797
bin	0.76666666666667	791
bin	0.83333333333333	973
bin	0.9	1469
bin	0.96666666666667	72342
bin	1.0333333333333	0
bin	1.1	0
bin	1.1666666666667	0
bin	1.2333333333333	0
bin	1.3	0
bin	1.3666666666667	0
bin	1.4333333333333	0
bin	1.5	0
statistic scenarioPRJP1.node[62].wlan[0].radio 	minSNIR:histogram
field count 282455
field mean 801.02168911756
field stddev 12359.32250442
field sum 226252581.1997
field sqrsum 43326887500568
field min 9.3957363297519e-05
field max 2159510.1905927
attr source  minSNIR
attr title  "Min SNIR, histogram"
bin	-INF	0
bin	-405.45523550864	0
bin	-351.39336096107	0
bin	-297.3314864135	0
bin	-243.26961186592	0
bin	-189.20773731835	0
bin	-135.14586277078	0
bin	-81.083988223202	0
bin	-27.022113675629	198266
bin	27.039760871944	23498
bin	81.101635419517	9937
bin	135.16350996709	10874
bin	189.22538451466	6131
bin	243.28725906224	3968
bin	297.34913360981	2921
bin	351.41100815738	2203
bin	405.47288270496	1741
bin	459.53475725253	1446
bin	513.5966318001	1226
bin	567.65850634768	1072
bin	621.72038089525	853
bin	675.78225544282	855
bin	729.84412999039	716
bin	783.90600453797	672
bin	837.96787908554	590
bin	892.02975363311	526
bin	946.09162818069	542
bin	1000.1535027283	453
bin	1054.2153772758	415
bin	1108.2772518234	370
bin	1162.339126371	368
bin	1216.4010009186	12812
scalar scenarioPRJP1.node[62].lo0.lo 	droppedPkBitError:count 	0
attr interpolationmode  none
attr source  dropPkBitError
attr title  "packets dropped/bit error, count"
scalar scenarioPRJP1.node[62].lo0.lo 	droppedPkBitError:sum(packetBytes) 	0
attr interpolationmode  none
attr source  dropPkBitError
attr title  "packets dropped/bit error, sum(packetBytes)"
scalar scenarioPRJP1.node[62].lo0.lo 	rcvdPkFromHL:count 	0
attr interpolationmode  none
attr source  packetReceivedFromUpper
attr title  "packets received from higher layer, count"
scalar scenarioPRJP1.node[62].lo0.lo 	rcvdPkFromHL:sum(packetBytes) 	0
attr interpolationmode  none
attr source  packetReceivedFromUpper
attr title  "packets received from higher layer, sum(packetBytes)"
scalar scenarioPRJP1.node[62].lo0.lo 	passedUpPk:count 	0
attr interpolationmode  none
attr source  packetSentToUpper
attr title  "packets passed to higher layer, count"
scalar scenarioPRJP1.node[62].lo0.lo 	passedUpPk:sum(packetBytes) 	0
attr interpolationmode  none
attr source  packetSentToUpper
attr title  "packets passed to higher layer, sum(packetBytes)"
scalar scenarioPRJP1.node[82].app 	"Total sent" 	2611
scalar scenarioPRJP1.node[82].app 	"Total received" 	139
scalar scenarioPRJP1.node[82].app 	"Total deleted" 	21
scalar scenarioPRJP1.node[82].app 	dropPk:count 	21
attr interpolationmode  none
attr source  dropPk
attr title  "packets dropped, count"
scalar scenarioPRJP1.node[82].app 	dropPk:sum(packetBytes) 	10752
attr interpolationmode  none
attr source  dropPk
attr title  "packets dropped, sum(packetBytes)"
scalar scenarioPRJP1.node[82].app 	outOfOrderPk:count 	11
attr interpolationmode  none
attr source  outOfOrderPk
attr title  "packets received out of order, count"
scalar scenarioPRJP1.node[82].app 	outOfOrderPk:sum(packetBytes) 	5632
attr interpolationmode  none
attr source  outOfOrderPk
attr title  "packets received out of order, sum(packetBytes)"
scalar scenarioPRJP1.node[82].app 	rcvdPk:count 	139
attr interpolationmode  none
attr source  rcvdPk
attr title  "packets received, count"
scalar scenarioPRJP1.node[82].app 	rcvdPk:sum(packetBytes) 	71168
attr interpolationmode  none
attr source  rcvdPk
attr title  "packets received, sum(packetBytes)"
statistic scenarioPRJP1.node[82].app 	endToEndDelay:histogram
field count 139
field mean 0.26185230151072
field stddev 0.89566238748447
field sum 36.39746990999
field sqrsum 120.23589477
field min 0.00094501119
field max 8.410721584648
attr interpolationmode  none
attr source  messageAge(rcvdPk)
attr title  "delay, histogram"
attr unit  s
bin	-INF	0
bin	-1.258631425497	0
bin	-1.0906879006054	0
bin	-0.9227443757138	0
bin	-0.7548008508222	0
bin	-0.5868573259306	0
bin	-0.418913801039	0
bin	-0.2509702761474	0
bin	-0.0830267512558	116
bin	0.0849167736358	3
bin	0.2528602985274	4
bin	0.420803823419	1
bin	0.5887473483106	0
bin	0.7566908732022	3
bin	0.9246343980938	2
bin	1.0925779229854	0
bin	1.260521447877	0
bin	1.4284649727686	2
bin	1.5964084976602	0
bin	1.7643520225518	1
bin	1.9322955474434	2
bin	2.100239072335	1
bin	2.2681825972266	0
bin	2.4361261221182	1
bin	2.6040696470098	1
bin	2.7720131719014	0
bin	2.939956696793	0
bin	3.1079002216846	1
bin	3.2758437465762	0
bin	3.4437872714678	0
bin	3.6117307963594	0
bin	3.779674321251	1
scalar scenarioPRJP1.node[82].app 	sentPk:count 	2611
attr interpolationmode  none
attr source  sentPk
attr title  "packets sent, count"
scalar scenarioPRJP1.node[82].app 	sentPk:sum(packetBytes) 	1336832
attr interpolationmode  none
attr source  sentPk
attr title  "packets sent, sum(packetBytes)"
scalar scenarioPRJP1.node[82].udp 	droppedPkBadChecksum:count 	0
attr interpolationmode  none
attr title  "packets dropped (checksum error), count"
scalar scenarioPRJP1.node[82].udp 	droppedPkWrongPort:count 	0
attr interpolationmode  none
attr title  "packets dropped (wrong port), count"
scalar scenarioPRJP1.node[82].udp 	passedUpPk:count 	171
attr interpolationmode  none
attr title  "packets passed up, count"
scalar scenarioPRJP1.node[82].udp 	rcvdPk:count 	171
attr interpolationmode  none
attr source  rcvdPk
attr title  "packets received, count"
scalar scenarioPRJP1.node[82].udp 	rcvdPk:sum(packetBytes) 	88920
attr interpolationmode  none
attr source  rcvdPk
attr title  "packets received, sum(packetBytes)"
scalar scenarioPRJP1.node[82].udp 	sentPk:count 	2611
attr interpolationmode  none
attr source  sentPk
attr title  "packets sent, count"
scalar scenarioPRJP1.node[82].udp 	sentPk:sum(packetBytes) 	1357720
attr interpolationmode  none
attr source  sentPk
attr title  "packets sent, sum(packetBytes)"
scalar scenarioPRJP1.node[82].networkLayer.arp 	failedARPResolution:count 	389
attr title  "ARP failed resolutions, count"
scalar scenarioPRJP1.node[82].networkLayer.arp 	completedARPResolution:count 	6078
attr title  "ARP completed resolutions, count"
scalar scenarioPRJP1.node[82].networkLayer.arp 	initiatedARPResolution:count 	509
attr title  "ARP initiated resolutions, count"
scalar scenarioPRJP1.node[82].networkLayer.arp 	sentReply:count 	42
attr title  "ARP replies sent, count"
scalar scenarioPRJP1.node[82].networkLayer.arp 	sentReq:count 	1375
attr title  "ARP request sent, count"
scalar scenarioPRJP1.node[82].mobility 	startTime 	9.7
scalar scenarioPRJP1.node[82].mobility 	totalTime 	940.2
scalar scenarioPRJP1.node[82].mobility 	stopTime 	950
scalar scenarioPRJP1.node[82].mobility 	minSpeed 	2.4755022446286e-13
scalar scenarioPRJP1.node[82].mobility 	maxSpeed 	17.495058466018
scalar scenarioPRJP1.node[82].mobility 	totalDistance 	8467.747410276
scalar scenarioPRJP1.node[82].mobility 	totalCO2Emission 	2381.8788268464
scalar scenarioPRJP1.node[82].wlan[0].mgmt 	dataQueueLen:max 	13
attr interpolationmode  sample-hold
attr title  "data queue length, max"
scalar scenarioPRJP1.node[82].wlan[0].mgmt 	dataQueueLen:timeavg 	0
attr interpolationmode  sample-hold
attr title  "data queue length, timeavg"
scalar scenarioPRJP1.node[82].wlan[0].mgmt 	dropPkByQueue:count 	0
attr interpolationmode  none
attr source  dropPkByQueue
attr title  "packets dropped by queue, count"
scalar scenarioPRJP1.node[82].wlan[0].mgmt 	dropPkByQueue:sum(packetBytes) 	0
attr interpolationmode  none
attr source  dropPkByQueue
attr title  "packets dropped by queue, sum(packetBytes)"
scalar scenarioPRJP1.node[82].wlan[0].mac 	"number of received packets" 	2810
scalar scenarioPRJP1.node[82].wlan[0].mac 	"number of collisions" 	113337
scalar scenarioPRJP1.node[82].wlan[0].mac 	"number of internal collisions" 	0
scalar scenarioPRJP1.node[82].wlan[0].mac 	"number of retry for AC 0" 	10621
scalar scenarioPRJP1.node[82].wlan[0].mac 	"number of retry for AC 1" 	0
scalar scenarioPRJP1.node[82].wlan[0].mac 	"number of retry for AC 2" 	0
scalar scenarioPRJP1.node[82].wlan[0].mac 	"number of retry for AC 3" 	0
scalar scenarioPRJP1.node[82].wlan[0].mac 	"sent and received bits" 	21887776
scalar scenarioPRJP1.node[82].wlan[0].mac 	"sent packet within AC 0" 	1497
scalar scenarioPRJP1.node[82].wlan[0].mac 	"sent packet within AC 1" 	0
scalar scenarioPRJP1.node[82].wlan[0].mac 	"sent packet within AC 2" 	0
scalar scenarioPRJP1.node[82].wlan[0].mac 	"sent packet within AC 3" 	0
scalar scenarioPRJP1.node[82].wlan[0].mac 	"sent in TXOP " 	0
scalar scenarioPRJP1.node[82].wlan[0].mac 	"sentWithoutRetry AC 0" 	1164
scalar scenarioPRJP1.node[82].wlan[0].mac 	"sentWithoutRetry AC 1" 	0
scalar scenarioPRJP1.node[82].wlan[0].mac 	"sentWithoutRetry AC 2" 	0
scalar scenarioPRJP1.node[82].wlan[0].mac 	"sentWithoutRetry AC 3" 	0
scalar scenarioPRJP1.node[82].wlan[0].mac 	"numGivenUp AC 0" 	1653
scalar scenarioPRJP1.node[82].wlan[0].mac 	"numGivenUp AC 1" 	0
scalar scenarioPRJP1.node[82].wlan[0].mac 	"numGivenUp AC 2" 	0
scalar scenarioPRJP1.node[82].wlan[0].mac 	"numGivenUp AC 3" 	0
scalar scenarioPRJP1.node[82].wlan[0].mac 	"numDropped AC 0" 	0
scalar scenarioPRJP1.node[82].wlan[0].mac 	"numDropped AC 1" 	0
scalar scenarioPRJP1.node[82].wlan[0].mac 	"numDropped AC 2" 	0
scalar scenarioPRJP1.node[82].wlan[0].mac 	"numDropped AC 3" 	0
scalar scenarioPRJP1.node[82].wlan[0].mac 	rcvdPkFromLL:count 	369472
attr interpolationmode  none
attr source  packetReceivedFromLower
attr title  "packets received from lower layer, count"
scalar scenarioPRJP1.node[82].wlan[0].mac 	rcvdPkFromLL:sum(packetBytes) 	61743022
attr interpolationmode  none
attr source  packetReceivedFromLower
attr title  "packets received from lower layer, sum(packetBytes)"
scalar scenarioPRJP1.node[82].wlan[0].mac 	sentDownPk:count 	42480
attr interpolationmode  none
attr source  packetSentToLower
attr title  "packets sent to lower layer, count"
scalar scenarioPRJP1.node[82].wlan[0].mac 	sentDownPk:sum(packetBytes) 	7326848
attr interpolationmode  none
attr source  packetSentToLower
attr title  "packets sent to lower layer, sum(packetBytes)"
scalar scenarioPRJP1.node[82].wlan[0].mac 	rcvdPkFromHL:count 	29049
attr interpolationmode  none
attr source  packetReceivedFromUpper
attr title  "packets received from higher layer, count"
scalar scenarioPRJP1.node[82].wlan[0].mac 	rcvdPkFromHL:sum(packetBytes) 	3341584
attr interpolationmode  none
attr source  packetReceivedFromUpper
attr title  "packets received from higher layer, sum(packetBytes)"
scalar scenarioPRJP1.node[82].wlan[0].mac 	passedUpPk:count 	156245
attr interpolationmode  none
attr source  packetSentToUpper
attr title  "packets passed to higher layer, count"
scalar scenarioPRJP1.node[82].wlan[0].mac 	passedUpPk:sum(packetBytes) 	14045408
attr interpolationmode  none
attr source  packetSentToUpper
attr title  "packets passed to higher layer, sum(packetBytes)"
statistic scenarioPRJP1.node[82].wlan[0].radio 	radioChannel:histogram
field count 1
field mean 3
field stddev -nan
field sum 3
field sqrsum 9
field min 3
field max 3
attr interpolationmode  sample-hold
attr source  radioChannelChanged
attr title  "Radio channel, histogram"
bin	-INF	0
bin	2	0
bin	3	1
bin	4	0
scalar scenarioPRJP1.node[82].wlan[0].radio 	transmissionState:count 	169920
attr interpolationmode  sample-hold
attr source  transmissionStateChanged
attr title  "Radio transmission state, count"
scalar scenarioPRJP1.node[82].wlan[0].radio 	receptionState:count 	865750
attr interpolationmode  sample-hold
attr source  receptionStateChanged
attr title  "Radio reception state, count"
scalar scenarioPRJP1.node[82].wlan[0].radio 	radioMode:count 	84962
attr interpolationmode  sample-hold
attr source  radioModeChanged
attr title  "Radio mode, count"
statistic scenarioPRJP1.node[82].wlan[0].radio 	symbolErrorRate:histogram
field count 0
field mean -nan
field stddev -nan
field sum 0
field sqrsum 0
field min -nan
field max -nan
attr source  symbolErrorRate
attr title  "Symbol error rate, histogram"
bin	-INF	0
bin	-0.5	0
bin	-0.46666666666667	0
bin	-0.43333333333333	0
bin	-0.4	0
bin	-0.36666666666667	0
bin	-0.33333333333333	0
bin	-0.3	0
bin	-0.26666666666667	0
bin	-0.23333333333333	0
bin	-0.2	0
bin	-0.16666666666667	0
bin	-0.13333333333333	0
bin	-0.1	0
bin	-0.066666666666667	0
bin	-0.033333333333333	0
bin	0	0
bin	0.033333333333333	0
bin	0.066666666666667	0
bin	0.1	0
bin	0.13333333333333	0
bin	0.16666666666667	0
bin	0.2	0
bin	0.23333333333333	0
bin	0.26666666666667	0
bin	0.3	0
bin	0.33333333333333	0
bin	0.36666666666667	0
bin	0.4	0
bin	0.43333333333333	0
bin	0.46666666666667	0
bin	0.5	0
statistic scenarioPRJP1.node[82].wlan[0].radio 	bitErrorRate:histogram
field count 0
field mean -nan
field stddev -nan
field sum 0
field sqrsum 0
field min -nan
field max -nan
attr source  bitErrorRate
attr title  "Bit error rate, histogram"
bin	-INF	0
bin	-0.5	0
bin	-0.46666666666667	0
bin	-0.43333333333333	0
bin	-0.4	0
bin	-0.36666666666667	0
bin	-0.33333333333333	0
bin	-0.3	0
bin	-0.26666666666667	0
bin	-0.23333333333333	0
bin	-0.2	0
bin	-0.16666666666667	0
bin	-0.13333333333333	0
bin	-0.1	0
bin	-0.066666666666667	0
bin	-0.033333333333333	0
bin	0	0
bin	0.033333333333333	0
bin	0.066666666666667	0
bin	0.1	0
bin	0.13333333333333	0
bin	0.16666666666667	0
bin	0.2	0
bin	0.23333333333333	0
bin	0.26666666666667	0
bin	0.3	0
bin	0.33333333333333	0
bin	0.36666666666667	0
bin	0.4	0
bin	0.43333333333333	0
bin	0.46666666666667	0
bin	0.5	0
statistic scenarioPRJP1.node[82].wlan[0].radio 	packetErrorRate:histogram
field count 369472
field mean 0.26494936587954
field stddev 0.43121574097047
field sum 97891.372110244
field sqrsum 94638.286641076
field min 0
field max 1
attr source  packetErrorRate
attr title  "Packet error rate, histogram"
bin	-INF	0
bin	-0.5	0
bin	-0.43333333333333	0
bin	-0.36666666666667	0
bin	-0.3	0
bin	-0.23333333333333	0
bin	-0.16666666666667	0
bin	-0.1	0
bin	-0.033333333333333	258178
bin	0.033333333333333	5537
bin	0.1	2603
bin	0.16666666666667	1765
bin	0.23333333333333	1367
bin	0.3	1188
bin	0.36666666666667	1043
bin	0.43333333333333	929
bin	0.5	884
bin	0.56666666666667	843
bin	0.63333333333333	880
bin	0.7	879
bin	0.76666666666667	936
bin	0.83333333333333	1140
bin	0.9	1697
bin	0.96666666666667	89603
bin	1.0333333333333	0
bin	1.1	0
bin	1.1666666666667	0
bin	1.2333333333333	0
bin	1.3	0
bin	1.3666666666667	0
bin	1.4333333333333	0
bin	1.5	0
statistic scenarioPRJP1.node[82].wlan[0].radio 	minSNIR:histogram
field count 369472
field mean 974.07797235692
field stddev 12773.329363332
field sum 359894536.60266
field sqrsum 60632693707557
field min 0.00010574178052665
field max 2129376.0267911
attr source  minSNIR
attr title  "Min SNIR, histogram"
bin	-INF	0
bin	-1923.9604676551	0
bin	-1667.4292441056	0
bin	-1410.8980205561	0
bin	-1154.3667970066	0
bin	-897.83557345711	0
bin	-641.30434990762	0
bin	-384.77312635812	0
bin	-128.24190280863	287492
bin	128.28932074086	40358
bin	384.82054429035	10857
bin	641.35176783984	5757
bin	897.88299138933	3622
bin	1154.4142149388	2509
bin	1410.9454384883	1910
bin	1667.4766620378	1536
bin	1924.0078855873	1149
bin	2180.5391091368	981
bin	2437.0703326863	792
bin	2693.6015562358	735
bin	2950.1327797853	605
bin	3206.6640033347	520
bin	3463.1952268842	478
bin	3719.7264504337	472
bin	3976.2576739832	418
bin	4232.7888975327	373
bin	4489.3201210822	286
bin	4745.8513446317	287
bin	5002.3825681812	293
bin	5258.9137917307	272
bin	5515.4450152802	242
bin	5771.9762388297	7528
scalar scenarioPRJP1.node[82].lo0.lo 	droppedPkBitError:count 	0
attr interpolationmode  none
attr source  dropPkBitError
attr title  "packets dropped/bit error, count"
scalar scenarioPRJP1.node[82].lo0.lo 	droppedPkBitError:sum(packetBytes) 	0
attr interpolationmode  none
attr source  dropPkBitError
attr title  "packets dropped/bit error, sum(packetBytes)"
scalar scenarioPRJP1.node[82].lo0.lo 	rcvdPkFromHL:count 	0
attr interpolationmode  none
attr source  packetReceivedFromUpper
attr title  "packets received from higher layer, count"
scalar scenarioPRJP1.node[82].lo0.lo 	rcvdPkFromHL:sum(packetBytes) 	0
attr interpolationmode  none
attr source  packetReceivedFromUpper
attr title  "packets received from higher layer, sum(packetBytes)"
scalar scenarioPRJP1.node[82].lo0.lo 	passedUpPk:count 	0
attr interpolationmode  none
attr source  packetSentToUpper
attr title  "packets passed to higher layer, count"
scalar scenarioPRJP1.node[82].lo0.lo 	passedUpPk:sum(packetBytes) 	0
attr interpolationmode  none
attr source  packetSentToUpper
attr title  "packets passed to higher layer, sum(packetBytes)"
scalar scenarioPRJP1.node[1].app 	"Total sent" 	2605
scalar scenarioPRJP1.node[1].app 	"Total received" 	130
scalar scenarioPRJP1.node[1].app 	"Total deleted" 	24
scalar scenarioPRJP1.node[1].app 	dropPk:count 	24
attr interpolationmode  none
attr source  dropPk
attr title  "packets dropped, count"
scalar scenarioPRJP1.node[1].app 	dropPk:sum(packetBytes) 	12288
attr interpolationmode  none
attr source  dropPk
attr title  "packets dropped, sum(packetBytes)"
scalar scenarioPRJP1.node[1].app 	outOfOrderPk:count 	6
attr interpolationmode  none
attr source  outOfOrderPk
attr title  "packets received out of order, count"
scalar scenarioPRJP1.node[1].app 	outOfOrderPk:sum(packetBytes) 	3072
attr interpolationmode  none
attr source  outOfOrderPk
attr title  "packets received out of order, sum(packetBytes)"
scalar scenarioPRJP1.node[1].app 	rcvdPk:count 	130
attr interpolationmode  none
attr source  rcvdPk
attr title  "packets received, count"
scalar scenarioPRJP1.node[1].app 	rcvdPk:sum(packetBytes) 	66560
attr interpolationmode  none
attr source  rcvdPk
attr title  "packets received, sum(packetBytes)"
statistic scenarioPRJP1.node[1].app 	endToEndDelay:histogram
field count 130
field mean 0.24282550002468
field stddev 0.61378550740352
field sum 31.567315003209
field sqrsum 56.26386078381
field min 0.000958025215
field max 3.635084105843
attr interpolationmode  none
attr source  messageAge(rcvdPk)
attr title  "delay, histogram"
attr unit  s
bin	-INF	0
bin	-1.3061582424605	0
bin	-1.1318760734371	0
bin	-0.9575939044137	0
bin	-0.7833117353903	0
bin	-0.6090295663669	0
bin	-0.4347473973435	0
bin	-0.2604652283201	0
bin	-0.0861830592967	107
bin	0.0880991097267	3
bin	0.2623812787501	1
bin	0.4366634477735	1
bin	0.6109456167969	2
bin	0.7852277858203	2
bin	0.9595099548437	3
bin	1.1337921238671	0
bin	1.3080742928905	0
bin	1.4823564619139	3
bin	1.6566386309373	0
bin	1.8309207999607	4
bin	2.0052029689841	2
bin	2.1794851380075	0
bin	2.3537673070309	0
bin	2.5280494760543	1
bin	2.7023316450777	0
bin	2.8766138141011	0
bin	3.0508959831245	0
bin	3.2251781521479	0
bin	3.3994603211713	0
bin	3.5737424901947	1
bin	3.7480246592181	0
bin	3.9223068282415	0
scalar scenarioPRJP1.node[1].app 	sentPk:count 	2605
attr interpolationmode  none
attr source  sentPk
attr title  "packets sent, count"
scalar scenarioPRJP1.node[1].app 	sentPk:sum(packetBytes) 	1333760
attr interpolationmode  none
attr source  sentPk
attr title  "packets sent, sum(packetBytes)"
scalar scenarioPRJP1.node[1].udp 	droppedPkBadChecksum:count 	0
attr interpolationmode  none
attr title  "packets dropped (checksum error), count"
scalar scenarioPRJP1.node[1].udp 	droppedPkWrongPort:count 	0
attr interpolationmode  none
attr title  "packets dropped (wrong port), count"
scalar scenarioPRJP1.node[1].udp 	passedUpPk:count 	160
attr interpolationmode  none
attr title  "packets passed up, count"
scalar scenarioPRJP1.node[1].udp 	rcvdPk:count 	160
attr interpolationmode  none
attr source  rcvdPk
attr title  "packets received, count"
scalar scenarioPRJP1.node[1].udp 	rcvdPk:sum(packetBytes) 	83200
attr interpolationmode  none
attr source  rcvdPk
attr title  "packets received, sum(packetBytes)"
scalar scenarioPRJP1.node[1].udp 	sentPk:count 	2605
attr interpolationmode  none
attr source  sentPk
attr title  "packets sent, count"
scalar scenarioPRJP1.node[1].udp 	sentPk:sum(packetBytes) 	1354600
attr interpolationmode  none
attr source  sentPk
attr title  "packets sent, sum(packetBytes)"
scalar scenarioPRJP1.node[1].networkLayer.arp 	failedARPResolution:count 	318
attr title  "ARP failed resolutions, count"
scalar scenarioPRJP1.node[1].networkLayer.arp 	completedARPResolution:count 	5140
attr title  "ARP completed resolutions, count"
scalar scenarioPRJP1.node[1].networkLayer.arp 	initiatedARPResolution:count 	425
attr title  "ARP initiated resolutions, count"
scalar scenarioPRJP1.node[1].networkLayer.arp 	sentReply:count 	56
attr title  "ARP replies sent, count"
scalar scenarioPRJP1.node[1].networkLayer.arp 	sentReq:count 	1125
attr title  "ARP request sent, count"
scalar scenarioPRJP1.node[1].mobility 	startTime 	0.1
scalar scenarioPRJP1.node[1].mobility 	totalTime 	949.8
scalar scenarioPRJP1.node[1].mobility 	stopTime 	950
scalar scenarioPRJP1.node[1].mobility 	minSpeed 	2.4754611734758e-13
scalar scenarioPRJP1.node[1].mobility 	maxSpeed 	19.121356832379
scalar scenarioPRJP1.node[1].mobility 	totalDistance 	10359.790179241
scalar scenarioPRJP1.node[1].mobility 	totalCO2Emission 	2859.4610799918
scalar scenarioPRJP1.node[1].wlan[0].mgmt 	dataQueueLen:max 	13
attr interpolationmode  sample-hold
attr title  "data queue length, max"
scalar scenarioPRJP1.node[1].wlan[0].mgmt 	dataQueueLen:timeavg 	0
attr interpolationmode  sample-hold
attr title  "data queue length, timeavg"
scalar scenarioPRJP1.node[1].wlan[0].mgmt 	dropPkByQueue:count 	0
attr interpolationmode  none
attr source  dropPkByQueue
attr title  "packets dropped by queue, count"
scalar scenarioPRJP1.node[1].wlan[0].mgmt 	dropPkByQueue:sum(packetBytes) 	0
attr interpolationmode  none
attr source  dropPkByQueue
attr title  "packets dropped by queue, sum(packetBytes)"
scalar scenarioPRJP1.node[1].wlan[0].mac 	"number of received packets" 	2120
scalar scenarioPRJP1.node[1].wlan[0].mac 	"number of collisions" 	105338
scalar scenarioPRJP1.node[1].wlan[0].mac 	"number of internal collisions" 	0
scalar scenarioPRJP1.node[1].wlan[0].mac 	"number of retry for AC 0" 	9408
scalar scenarioPRJP1.node[1].wlan[0].mac 	"number of retry for AC 1" 	0
scalar scenarioPRJP1.node[1].wlan[0].mac 	"number of retry for AC 2" 	0
scalar scenarioPRJP1.node[1].wlan[0].mac 	"number of retry for AC 3" 	0
scalar scenarioPRJP1.node[1].wlan[0].mac 	"sent and received bits" 	19783520
scalar scenarioPRJP1.node[1].wlan[0].mac 	"sent packet within AC 0" 	1030
scalar scenarioPRJP1.node[1].wlan[0].mac 	"sent packet within AC 1" 	0
scalar scenarioPRJP1.node[1].wlan[0].mac 	"sent packet within AC 2" 	0
scalar scenarioPRJP1.node[1].wlan[0].mac 	"sent packet within AC 3" 	0
scalar scenarioPRJP1.node[1].wlan[0].mac 	"sent in TXOP " 	0
scalar scenarioPRJP1.node[1].wlan[0].mac 	"sentWithoutRetry AC 0" 	760
scalar scenarioPRJP1.node[1].wlan[0].mac 	"sentWithoutRetry AC 1" 	0
scalar scenarioPRJP1.node[1].wlan[0].mac 	"sentWithoutRetry AC 2" 	0
scalar scenarioPRJP1.node[1].wlan[0].mac 	"sentWithoutRetry AC 3" 	0
scalar scenarioPRJP1.node[1].wlan[0].mac 	"numGivenUp AC 0" 	1487
scalar scenarioPRJP1.node[1].wlan[0].mac 	"numGivenUp AC 1" 	0
scalar scenarioPRJP1.node[1].wlan[0].mac 	"numGivenUp AC 2" 	0
scalar scenarioPRJP1.node[1].wlan[0].mac 	"numGivenUp AC 3" 	0
scalar scenarioPRJP1.node[1].wlan[0].mac 	"numDropped AC 0" 	0
scalar scenarioPRJP1.node[1].wlan[0].mac 	"numDropped AC 1" 	0
scalar scenarioPRJP1.node[1].wlan[0].mac 	"numDropped AC 2" 	0
scalar scenarioPRJP1.node[1].wlan[0].mac 	"numDropped AC 3" 	0
scalar scenarioPRJP1.node[1].wlan[0].mac 	rcvdPkFromLL:count 	325214
attr interpolationmode  none
attr source  packetReceivedFromLower
attr title  "packets received from lower layer, count"
scalar scenarioPRJP1.node[1].wlan[0].mac 	rcvdPkFromLL:sum(packetBytes) 	54229616
attr interpolationmode  none
attr source  packetReceivedFromLower
attr title  "packets received from lower layer, sum(packetBytes)"
scalar scenarioPRJP1.node[1].wlan[0].mac 	sentDownPk:count 	38443
attr interpolationmode  none
attr source  packetSentToLower
attr title  "packets sent to lower layer, count"
scalar scenarioPRJP1.node[1].wlan[0].mac 	sentDownPk:sum(packetBytes) 	6565004
attr interpolationmode  none
attr source  packetSentToLower
attr title  "packets sent to lower layer, sum(packetBytes)"
scalar scenarioPRJP1.node[1].wlan[0].mac 	rcvdPkFromHL:count 	26915
attr interpolationmode  none
attr source  packetReceivedFromUpper
attr title  "packets received from higher layer, count"
scalar scenarioPRJP1.node[1].wlan[0].mac 	rcvdPkFromHL:sum(packetBytes) 	3025208
attr interpolationmode  none
[...]
attr interpolationmode  none
attr source  packetSentToUpper
attr title  "packets passed to higher layer, sum(packetBytes)"
statistic scenarioPRJP1.node[79].wlan[0].radio 	radioChannel:histogram
field count 1
field mean 3
field stddev -nan
field sum 3
field sqrsum 9
field min 3
field max 3
attr interpolationmode  sample-hold
attr source  radioChannelChanged
attr title  "Radio channel, histogram"
bin	-INF	0
bin	2	0
bin	3	1
bin	4	0
scalar scenarioPRJP1.node[79].wlan[0].radio 	transmissionState:count 	148760
attr interpolationmode  sample-hold
attr source  transmissionStateChanged
attr title  "Radio transmission state, count"
scalar scenarioPRJP1.node[79].wlan[0].radio 	receptionState:count 	688322
attr interpolationmode  sample-hold
attr source  receptionStateChanged
attr title  "Radio reception state, count"
scalar scenarioPRJP1.node[79].wlan[0].radio 	radioMode:count 	74382
attr interpolationmode  sample-hold
attr source  radioModeChanged
attr title  "Radio mode, count"
statistic scenarioPRJP1.node[79].wlan[0].radio 	symbolErrorRate:histogram
field count 0
field mean -nan
field stddev -nan
field sum 0
field sqrsum 0
field min -nan
field max -nan
attr source  symbolErrorRate
attr title  "Symbol error rate, histogram"
bin	-INF	0
bin	-0.5	0
bin	-0.46666666666667	0
bin	-0.43333333333333	0
bin	-0.4	0
bin	-0.36666666666667	0
bin	-0.33333333333333	0
bin	-0.3	0
bin	-0.26666666666667	0
bin	-0.23333333333333	0
bin	-0.2	0
bin	-0.16666666666667	0
bin	-0.13333333333333	0
bin	-0.1	0
bin	-0.066666666666667	0
bin	-0.033333333333333	0
bin	0	0
bin	0.033333333333333	0
bin	0.066666666666667	0
bin	0.1	0
bin	0.13333333333333	0
bin	0.16666666666667	0
bin	0.2	0
bin	0.23333333333333	0
bin	0.26666666666667	0
bin	0.3	0
bin	0.33333333333333	0
bin	0.36666666666667	0
bin	0.4	0
bin	0.43333333333333	0
bin	0.46666666666667	0
bin	0.5	0
statistic scenarioPRJP1.node[79].wlan[0].radio 	bitErrorRate:histogram
field count 0
field mean -nan
field stddev -nan
field sum 0
field sqrsum 0
field min -nan
field max -nan
attr source  bitErrorRate
attr title  "Bit error rate, histogram"
bin	-INF	0
bin	-0.5	0
bin	-0.46666666666667	0
bin	-0.43333333333333	0
bin	-0.4	0
bin	-0.36666666666667	0
bin	-0.33333333333333	0
bin	-0.3	0
bin	-0.26666666666667	0
bin	-0.23333333333333	0
bin	-0.2	0
bin	-0.16666666666667	0
bin	-0.13333333333333	0
bin	-0.1	0
bin	-0.066666666666667	0
bin	-0.033333333333333	0
bin	0	0
bin	0.033333333333333	0
bin	0.066666666666667	0
bin	0.1	0
bin	0.13333333333333	0
bin	0.16666666666667	0
bin	0.2	0
bin	0.23333333333333	0
bin	0.26666666666667	0
bin	0.3	0
bin	0.33333333333333	0
bin	0.36666666666667	0
bin	0.4	0
bin	0.43333333333333	0
bin	0.46666666666667	0
bin	0.5	0
statistic scenarioPRJP1.node[79].wlan[0].radio 	packetErrorRate:histogram
field count 292037
field mean 0.26672323098343
field stddev 0.43167033540673
field sum 77893.052206709
field sqrsum 75193.664083046
field min 0
field max 1
attr source  packetErrorRate
attr title  "Packet error rate, histogram"
bin	-INF	0
bin	-0.5	0
bin	-0.43333333333333	0
bin	-0.36666666666667	0
bin	-0.3	0
bin	-0.23333333333333	0
bin	-0.16666666666667	0
bin	-0.1	0
bin	-0.033333333333333	203009
bin	0.033333333333333	4534
bin	0.1	2227
bin	0.16666666666667	1561
bin	0.23333333333333	1174
bin	0.3	893
bin	0.36666666666667	827
bin	0.43333333333333	806
bin	0.5	717
bin	0.56666666666667	695
bin	0.63333333333333	696
bin	0.7	730
bin	0.76666666666667	759
bin	0.83333333333333	1014
bin	0.9	1394
bin	0.96666666666667	71001
bin	1.0333333333333	0
bin	1.1	0
bin	1.1666666666667	0
bin	1.2333333333333	0
bin	1.3	0
bin	1.3666666666667	0
bin	1.4333333333333	0
bin	1.5	0
statistic scenarioPRJP1.node[79].wlan[0].radio 	minSNIR:histogram
field count 292037
field mean 1137.6030889101
field stddev 13068.51315516
field sum 332222193.27603
field sqrsum 50253607827860
field min 0.00011932078575134
field max 2435370.5510045
attr source  minSNIR
attr title  "Min SNIR, histogram"
bin	-INF	0
bin	-107.71768122465	0
bin	-93.354149454535	0
bin	-78.990617684424	0
bin	-64.627085914313	0
bin	-50.263554144203	0
bin	-35.900022374092	0
bin	-21.536490603981	0
bin	-7.1729588338698	143973
bin	7.1905729362412	43318
bin	21.554104706352	14055
bin	35.917636476463	7883
bin	50.281168246574	5150
bin	64.644700016685	3891
bin	79.008231786796	3212
bin	93.371763556907	2489
bin	107.73529532702	2209
bin	122.09882709713	3798
bin	136.46235886724	3756
bin	150.82589063735	3068
bin	165.18942240746	2631
bin	179.55295417757	2203
bin	193.91648594768	1922
bin	208.28001771779	1694
bin	222.6435494879	1485
bin	237.00708125802	1434
bin	251.37061302813	1246
bin	265.73414479824	1169
bin	280.09767656835	1070
bin	294.46120833846	952
bin	308.82474010857	901
bin	323.18827187868	38528
scalar scenarioPRJP1.node[79].lo0.lo 	droppedPkBitError:count 	0
attr interpolationmode  none
attr source  dropPkBitError
attr title  "packets dropped/bit error, count"
scalar scenarioPRJP1.node[79].lo0.lo 	droppedPkBitError:sum(packetBytes) 	0
attr interpolationmode  none
attr source  dropPkBitError
attr title  "packets dropped/bit error, sum(packetBytes)"
scalar scenarioPRJP1.node[79].lo0.lo 	rcvdPkFromHL:count 	0
attr interpolationmode  none
attr source  packetReceivedFromUpper
attr title  "packets received from higher layer, count"
scalar scenarioPRJP1.node[79].lo0.lo 	rcvdPkFromHL:sum(packetBytes) 	0
attr interpolationmode  none
attr source  packetReceivedFromUpper
attr title  "packets received from higher layer, sum(packetBytes)"
scalar scenarioPRJP1.node[79].lo0.lo 	passedUpPk:count 	0
attr interpolationmode  none
attr source  packetSentToUpper
attr title  "packets passed to higher layer, count"
scalar scenarioPRJP1.node[79].lo0.lo 	passedUpPk:sum(packetBytes) 	0
attr interpolationmode  none
attr source  packetSentToUpper
attr title  "packets passed to higher layer, sum(packetBytes)"
scalar scenarioPRJP1.node[98].app 	"Total sent" 	2619
scalar scenarioPRJP1.node[98].app 	"Total received" 	138
scalar scenarioPRJP1.node[98].app 	"Total deleted" 	45
scalar scenarioPRJP1.node[98].app 	dropPk:count 	45
attr interpolationmode  none
attr source  dropPk
attr title  "packets dropped, count"
scalar scenarioPRJP1.node[98].app 	dropPk:sum(packetBytes) 	23040
attr interpolationmode  none
attr source  dropPk
attr title  "packets dropped, sum(packetBytes)"
scalar scenarioPRJP1.node[98].app 	outOfOrderPk:count 	6
attr interpolationmode  none
attr source  outOfOrderPk
attr title  "packets received out of order, count"
scalar scenarioPRJP1.node[98].app 	outOfOrderPk:sum(packetBytes) 	3072
attr interpolationmode  none
attr source  outOfOrderPk
attr title  "packets received out of order, sum(packetBytes)"
scalar scenarioPRJP1.node[98].app 	rcvdPk:count 	138
attr interpolationmode  none
attr source  rcvdPk
attr title  "packets received, count"
scalar scenarioPRJP1.node[98].app 	rcvdPk:sum(packetBytes) 	70656
attr interpolationmode  none
attr source  rcvdPk
attr title  "packets received, sum(packetBytes)"
statistic scenarioPRJP1.node[98].app 	endToEndDelay:histogram
field count 138
field mean 0.35113514762423
field stddev 1.1259725606428
field sum 48.456650372144
field sqrsum 190.70537948471
field min 0.00094513057
field max 10.48118409885
attr interpolationmode  none
attr source  messageAge(rcvdPk)
attr title  "delay, histogram"
attr unit  s
bin	-INF	0
bin	-5.239172279865	0
bin	-4.5404897741443	0
bin	-3.8418072684237	0
bin	-3.143124762703	0
bin	-2.4444422569823	0
bin	-1.7457597512617	0
bin	-1.047077245541	0
bin	-0.34839473982033	114
bin	0.35028776590033	10
bin	1.048970271621	5
bin	1.7476527773417	5
bin	2.4463352830623	2
bin	3.145017788783	0
bin	3.8437002945037	0
bin	4.5423828002243	0
bin	5.241065305945	1
bin	5.9397478116657	0
bin	6.6384303173863	0
bin	7.337112823107	0
bin	8.0357953288277	0
bin	8.7344778345483	0
bin	9.433160340269	0
bin	10.13184284599	1
bin	10.83052535171	0
bin	11.529207857431	0
bin	12.227890363152	0
bin	12.926572868872	0
bin	13.625255374593	0
bin	14.323937880314	0
bin	15.022620386034	0
bin	15.721302891755	0
scalar scenarioPRJP1.node[98].app 	sentPk:count 	2619
attr interpolationmode  none
attr source  sentPk
attr title  "packets sent, count"
scalar scenarioPRJP1.node[98].app 	sentPk:sum(packetBytes) 	1340928
attr interpolationmode  none
attr source  sentPk
attr title  "packets sent, sum(packetBytes)"
scalar scenarioPRJP1.node[98].udp 	droppedPkBadChecksum:count 	0
attr interpolationmode  none
attr title  "packets dropped (checksum error), count"
scalar scenarioPRJP1.node[98].udp 	droppedPkWrongPort:count 	0
attr interpolationmode  none
attr title  "packets dropped (wrong port), count"
scalar scenarioPRJP1.node[98].udp 	passedUpPk:count 	189
attr interpolationmode  none
attr title  "packets passed up, count"
scalar scenarioPRJP1.node[98].udp 	rcvdPk:count 	189
attr interpolationmode  none
attr source  rcvdPk
attr title  "packets received, count"
scalar scenarioPRJP1.node[98].udp 	rcvdPk:sum(packetBytes) 	98280
attr interpolationmode  none
attr source  rcvdPk
attr title  "packets received, sum(packetBytes)"
scalar scenarioPRJP1.node[98].udp 	sentPk:count 	2619
attr interpolationmode  none
attr source  sentPk
attr title  "packets sent, count"
scalar scenarioPRJP1.node[98].udp 	sentPk:sum(packetBytes) 	1361880
attr interpolationmode  none
attr source  sentPk
attr title  "packets sent, sum(packetBytes)"
scalar scenarioPRJP1.node[98].networkLayer.arp 	failedARPResolution:count 	279
attr title  "ARP failed resolutions, count"
scalar scenarioPRJP1.node[98].networkLayer.arp 	completedARPResolution:count 	6295
attr title  "ARP completed resolutions, count"
scalar scenarioPRJP1.node[98].networkLayer.arp 	initiatedARPResolution:count 	373
attr title  "ARP initiated resolutions, count"
scalar scenarioPRJP1.node[98].networkLayer.arp 	sentReply:count 	88
attr title  "ARP replies sent, count"
scalar scenarioPRJP1.node[98].networkLayer.arp 	sentReq:count 	982
attr title  "ARP request sent, count"
scalar scenarioPRJP1.node[98].mobility 	startTime 	9.9
scalar scenarioPRJP1.node[98].mobility 	totalTime 	940
scalar scenarioPRJP1.node[98].mobility 	stopTime 	950
scalar scenarioPRJP1.node[98].mobility 	minSpeed 	2.4755060850502e-13
scalar scenarioPRJP1.node[98].mobility 	maxSpeed 	16.72549145178
scalar scenarioPRJP1.node[98].mobility 	totalDistance 	8538.8996440452
scalar scenarioPRJP1.node[98].mobility 	totalCO2Emission 	2303.6770073997
scalar scenarioPRJP1.node[98].wlan[0].mgmt 	dataQueueLen:max 	20
attr interpolationmode  sample-hold
attr title  "data queue length, max"
scalar scenarioPRJP1.node[98].wlan[0].mgmt 	dataQueueLen:timeavg 	0
attr interpolationmode  sample-hold
attr title  "data queue length, timeavg"
scalar scenarioPRJP1.node[98].wlan[0].mgmt 	dropPkByQueue:count 	0
attr interpolationmode  none
attr source  dropPkByQueue
attr title  "packets dropped by queue, count"
scalar scenarioPRJP1.node[98].wlan[0].mgmt 	dropPkByQueue:sum(packetBytes) 	0
attr interpolationmode  none
attr source  dropPkByQueue
attr title  "packets dropped by queue, sum(packetBytes)"
scalar scenarioPRJP1.node[98].wlan[0].mac 	"number of received packets" 	6486
scalar scenarioPRJP1.node[98].wlan[0].mac 	"number of collisions" 	120504
scalar scenarioPRJP1.node[98].wlan[0].mac 	"number of internal collisions" 	8
scalar scenarioPRJP1.node[98].wlan[0].mac 	"number of retry for AC 0" 	11138
scalar scenarioPRJP1.node[98].wlan[0].mac 	"number of retry for AC 1" 	16
scalar scenarioPRJP1.node[98].wlan[0].mac 	"number of retry for AC 2" 	0
scalar scenarioPRJP1.node[98].wlan[0].mac 	"number of retry for AC 3" 	0
scalar scenarioPRJP1.node[98].wlan[0].mac 	"sent and received bits" 	25397888
scalar scenarioPRJP1.node[98].wlan[0].mac 	"sent packet within AC 0" 	5161
scalar scenarioPRJP1.node[98].wlan[0].mac 	"sent packet within AC 1" 	100
scalar scenarioPRJP1.node[98].wlan[0].mac 	"sent packet within AC 2" 	0
scalar scenarioPRJP1.node[98].wlan[0].mac 	"sent packet within AC 3" 	0
scalar scenarioPRJP1.node[98].wlan[0].mac 	"sent in TXOP " 	0
scalar scenarioPRJP1.node[98].wlan[0].mac 	"sentWithoutRetry AC 0" 	4485
scalar scenarioPRJP1.node[98].wlan[0].mac 	"sentWithoutRetry AC 1" 	87
scalar scenarioPRJP1.node[98].wlan[0].mac 	"sentWithoutRetry AC 2" 	0
scalar scenarioPRJP1.node[98].wlan[0].mac 	"sentWithoutRetry AC 3" 	0
scalar scenarioPRJP1.node[98].wlan[0].mac 	"numGivenUp AC 0" 	1672
scalar scenarioPRJP1.node[98].wlan[0].mac 	"numGivenUp AC 1" 	0
scalar scenarioPRJP1.node[98].wlan[0].mac 	"numGivenUp AC 2" 	0
scalar scenarioPRJP1.node[98].wlan[0].mac 	"numGivenUp AC 3" 	0
scalar scenarioPRJP1.node[98].wlan[0].mac 	"numDropped AC 0" 	0
scalar scenarioPRJP1.node[98].wlan[0].mac 	"numDropped AC 1" 	0
scalar scenarioPRJP1.node[98].wlan[0].mac 	"numDropped AC 2" 	0
scalar scenarioPRJP1.node[98].wlan[0].mac 	"numDropped AC 3" 	0
scalar scenarioPRJP1.node[98].wlan[0].mac 	rcvdPkFromLL:count 	408872
attr interpolationmode  none
attr source  packetReceivedFromLower
attr title  "packets received from lower layer, count"
scalar scenarioPRJP1.node[98].wlan[0].mac 	rcvdPkFromLL:sum(packetBytes) 	67521088
attr interpolationmode  none
attr source  packetReceivedFromLower
attr title  "packets received from lower layer, sum(packetBytes)"
scalar scenarioPRJP1.node[98].wlan[0].mac 	sentDownPk:count 	50056
attr interpolationmode  none
attr source  packetSentToLower
attr title  "packets sent to lower layer, count"
scalar scenarioPRJP1.node[98].wlan[0].mac 	sentDownPk:sum(packetBytes) 	7904024
attr interpolationmode  none
attr source  packetSentToLower
attr title  "packets sent to lower layer, sum(packetBytes)"
scalar scenarioPRJP1.node[98].wlan[0].mac 	rcvdPkFromHL:count 	32425
attr interpolationmode  none
attr source  packetReceivedFromUpper
attr title  "packets received from higher layer, count"
scalar scenarioPRJP1.node[98].wlan[0].mac 	rcvdPkFromHL:sum(packetBytes) 	3786388
attr interpolationmode  none
attr source  packetReceivedFromUpper
attr title  "packets received from higher layer, sum(packetBytes)"
scalar scenarioPRJP1.node[98].wlan[0].mac 	passedUpPk:count 	170294
attr interpolationmode  none
attr source  packetSentToUpper
attr title  "packets passed to higher layer, count"
scalar scenarioPRJP1.node[98].wlan[0].mac 	passedUpPk:sum(packetBytes) 	15365728
attr interpolationmode  none
attr source  packetSentToUpper
attr title  "packets passed to higher layer, sum(packetBytes)"
statistic scenarioPRJP1.node[98].wlan[0].radio 	radioChannel:histogram
field count 1
field mean 3
field stddev -nan
field sum 3
field sqrsum 9
field min 3
field max 3
attr interpolationmode  sample-hold
attr source  radioChannelChanged
attr title  "Radio channel, histogram"
bin	-INF	0
bin	2	0
bin	3	1
bin	4	0
scalar scenarioPRJP1.node[98].wlan[0].radio 	transmissionState:count 	200224
attr interpolationmode  sample-hold
attr source  transmissionStateChanged
attr title  "Radio transmission state, count"
scalar scenarioPRJP1.node[98].wlan[0].radio 	receptionState:count 	964197
attr interpolationmode  sample-hold
attr source  receptionStateChanged
attr title  "Radio reception state, count"
scalar scenarioPRJP1.node[98].wlan[0].radio 	radioMode:count 	100114
attr interpolationmode  sample-hold
attr source  radioModeChanged
attr title  "Radio mode, count"
statistic scenarioPRJP1.node[98].wlan[0].radio 	symbolErrorRate:histogram
field count 0
field mean -nan
field stddev -nan
field sum 0
field sqrsum 0
field min -nan
field max -nan
attr source  symbolErrorRate
attr title  "Symbol error rate, histogram"
bin	-INF	0
bin	-0.5	0
bin	-0.46666666666667	0
bin	-0.43333333333333	0
bin	-0.4	0
bin	-0.36666666666667	0
bin	-0.33333333333333	0
bin	-0.3	0
bin	-0.26666666666667	0
bin	-0.23333333333333	0
bin	-0.2	0
bin	-0.16666666666667	0
bin	-0.13333333333333	0
bin	-0.1	0
bin	-0.066666666666667	0
bin	-0.033333333333333	0
bin	0	0
bin	0.033333333333333	0
bin	0.066666666666667	0
bin	0.1	0
bin	0.13333333333333	0
bin	0.16666666666667	0
bin	0.2	0
bin	0.23333333333333	0
bin	0.26666666666667	0
bin	0.3	0
bin	0.33333333333333	0
bin	0.36666666666667	0
bin	0.4	0
bin	0.43333333333333	0
bin	0.46666666666667	0
bin	0.5	0
statistic scenarioPRJP1.node[98].wlan[0].radio 	bitErrorRate:histogram
field count 0
field mean -nan
field stddev -nan
field sum 0
field sqrsum 0
field min -nan
field max -nan
attr source  bitErrorRate
attr title  "Bit error rate, histogram"
bin	-INF	0
bin	-0.5	0
bin	-0.46666666666667	0
bin	-0.43333333333333	0
bin	-0.4	0
bin	-0.36666666666667	0
bin	-0.33333333333333	0
bin	-0.3	0
bin	-0.26666666666667	0
bin	-0.23333333333333	0
bin	-0.2	0
bin	-0.16666666666667	0
bin	-0.13333333333333	0
bin	-0.1	0
bin	-0.066666666666667	0
bin	-0.033333333333333	0
bin	0	0
bin	0.033333333333333	0
bin	0.066666666666667	0
bin	0.1	0
bin	0.13333333333333	0
bin	0.16666666666667	0
bin	0.2	0
bin	0.23333333333333	0
bin	0.26666666666667	0
bin	0.3	0
bin	0.33333333333333	0
bin	0.36666666666667	0
bin	0.4	0
bin	0.43333333333333	0
bin	0.46666666666667	0
bin	0.5	0
statistic scenarioPRJP1.node[98].wlan[0].radio 	packetErrorRate:histogram
field count 408872
field mean 0.25524109490376
field stddev 0.42659528783078
field sum 104360.93695549
field sqrsum 101044.99163326
field min 0
field max 1
attr source  packetErrorRate
attr title  "Packet error rate, histogram"
bin	-INF	0
bin	-0.5	0
bin	-0.43333333333333	0
bin	-0.36666666666667	0
bin	-0.3	0
bin	-0.23333333333333	0
bin	-0.16666666666667	0
bin	-0.1	0
bin	-0.033333333333333	290682
bin	0.033333333333333	5785
bin	0.1	2697
bin	0.16666666666667	1845
bin	0.23333333333333	1387
bin	0.3	1236
bin	0.36666666666667	1017
bin	0.43333333333333	956
bin	0.5	902
bin	0.56666666666667	850
bin	0.63333333333333	864
bin	0.7	883
bin	0.76666666666667	932
bin	0.83333333333333	1138
bin	0.9	1752
bin	0.96666666666667	95946
bin	1.0333333333333	0
bin	1.1	0
bin	1.1666666666667	0
bin	1.2333333333333	0
bin	1.3	0
bin	1.3666666666667	0
bin	1.4333333333333	0
bin	1.5	0
statistic scenarioPRJP1.node[98].wlan[0].radio 	minSNIR:histogram
field count 408872
field mean 1022.1938727344
field stddev 12657.88141604
field sum 417946453.13265
field sqrsum 65937336104924
field min 6.6298452947951e-05
field max 3578882.1488345
attr source  minSNIR
attr title  "Min SNIR, histogram"
bin	-INF	0
bin	-134.50083130199	0
bin	-116.5518429563	0
bin	-98.602854610618	0
bin	-80.653866264932	0
bin	-62.704877919245	0
bin	-44.755889573559	0
bin	-26.806901227873	0
bin	-8.8579128821863	201768
bin	9.0910754635	57218
bin	27.040063809186	20894
bin	44.989052154873	12249
bin	62.938040500559	8585
bin	80.887028846245	6320
bin	98.836017191932	4987
bin	116.78500553762	5984
bin	134.7339938833	6265
bin	152.68298222899	5299
bin	170.63197057468	4315
bin	188.58095892036	3716
bin	206.52994726605	3194
bin	224.47893561174	2976
bin	242.42792395742	2470
bin	260.37691230311	2309
bin	278.3259006488	2091
bin	296.27488899448	1829
bin	314.22387734017	1623
bin	332.17286568585	1561
bin	350.12185403154	1405
bin	368.07084237723	1387
bin	386.01983072291	1254
bin	403.9688190686	49173
scalar scenarioPRJP1.node[98].lo0.lo 	droppedPkBitError:count 	0
attr interpolationmode  none
attr source  dropPkBitError
attr title  "packets dropped/bit error, count"
scalar scenarioPRJP1.node[98].lo0.lo 	droppedPkBitError:sum(packetBytes) 	0
attr interpolationmode  none
attr source  dropPkBitError
attr title  "packets dropped/bit error, sum(packetBytes)"
scalar scenarioPRJP1.node[98].lo0.lo 	rcvdPkFromHL:count 	0
attr interpolationmode  none
attr source  packetReceivedFromUpper
attr title  "packets received from higher layer, count"
scalar scenarioPRJP1.node[98].lo0.lo 	rcvdPkFromHL:sum(packetBytes) 	0
attr interpolationmode  none
attr source  packetReceivedFromUpper
attr title  "packets received from higher layer, sum(packetBytes)"
scalar scenarioPRJP1.node[98].lo0.lo 	passedUpPk:count 	0
attr interpolationmode  none
attr source  packetSentToUpper
attr title  "packets passed to higher layer, count"
scalar scenarioPRJP1.node[98].lo0.lo 	passedUpPk:sum(packetBytes) 	0
attr interpolationmode  none
attr source  packetSentToUpper
attr title  "packets passed to higher layer, sum(packetBytes)"
