version 2
run AODVRouting-FS-10n-29-20150818-13:48:47-27067
attr configname AODVRouting-FS-10n
attr datetime 20150818-13:48:47
attr experiment AODVRouting-FS-10n
attr inifile omnetpp.ini
attr iterationvars ""
attr iterationvars2 $repetition=29
attr measurement ""
attr network Prj_Part1_propag.scenarioPRJP1
attr processid 27067
attr repetition 29
attr replication #29
attr resultdir results
attr runnumber 29
attr seedset 29

scalar scenarioPRJP1.radioMedium.propagation 	"Arrival computation count" 	391671
scalar scenarioPRJP1.radioMedium 	"transmission count" 	43519
scalar scenarioPRJP1.radioMedium 	"radio frame send count" 	391671
scalar scenarioPRJP1.radioMedium 	"reception computation count" 	391258
scalar scenarioPRJP1.radioMedium 	"interference computation count" 	1209061
scalar scenarioPRJP1.radioMedium 	"reception decision computation count" 	54555
scalar scenarioPRJP1.radioMedium 	"listening decision computation count" 	764824
scalar scenarioPRJP1.radioMedium 	"reception cache hit" 	70.438610276651
attr unit  %
scalar scenarioPRJP1.radioMedium 	"interference cache hit" 	50
attr unit  %
scalar scenarioPRJP1.radioMedium 	"noise cache hit" 	0
attr unit  %
scalar scenarioPRJP1.radioMedium 	"snir cache hit" 	0
attr unit  %
scalar scenarioPRJP1.radioMedium 	"reception decision cache hit" 	0
attr unit  %
scalar scenarioPRJP1.node[0].app 	"Total sent" 	2607
scalar scenarioPRJP1.node[0].app 	"Total received" 	46
scalar scenarioPRJP1.node[0].app 	"Total deleted" 	50
scalar scenarioPRJP1.node[0].app 	dropPk:count 	50
attr interpolationmode  none
attr source  dropPk
attr title  "packets dropped, count"
scalar scenarioPRJP1.node[0].app 	dropPk:sum(packetBytes) 	25600
attr interpolationmode  none
attr source  dropPk
attr title  "packets dropped, sum(packetBytes)"
scalar scenarioPRJP1.node[0].app 	outOfOrderPk:count 	0
attr interpolationmode  none
attr source  outOfOrderPk
attr title  "packets received out of order, count"
scalar scenarioPRJP1.node[0].app 	outOfOrderPk:sum(packetBytes) 	0
attr interpolationmode  none
attr source  outOfOrderPk
attr title  "packets received out of order, sum(packetBytes)"
scalar scenarioPRJP1.node[0].app 	rcvdPk:count 	46
attr interpolationmode  none
attr source  rcvdPk
attr title  "packets received, count"
scalar scenarioPRJP1.node[0].app 	rcvdPk:sum(packetBytes) 	23552
attr interpolationmode  none
attr source  rcvdPk
attr title  "packets received, sum(packetBytes)"
statistic scenarioPRJP1.node[0].app 	endToEndDelay:histogram
field count 46
field mean 2.3359070249302
field stddev 4.6159295688111
field sum 107.45172314679
field sqrsum 1209.8034952295
field min 0.000945071362
field max 16.64554054844
attr interpolationmode  none
attr source  messageAge(rcvdPk)
attr title  "delay, histogram"
attr unit  s
bin	-INF	0
bin	-8.321352667177	0
bin	-7.2117129687051	0
bin	-6.1020732702333	0
bin	-4.9924335717614	0
bin	-3.8827938732895	0
bin	-2.7731541748177	0
bin	-1.6635144763458	0
bin	-0.55387477787393	35
bin	0.55576492059793	0
bin	1.6654046190698	0
bin	2.7750443175417	1
bin	3.8846840160135	1
bin	4.9943237144854	0
bin	6.1039634129573	1
bin	7.2136031114291	1
bin	8.323242809901	0
bin	9.4328825083729	2
bin	10.542522206845	2
bin	11.652161905317	0
bin	12.761801603788	2
bin	13.87144130226	0
bin	14.981081000732	0
bin	16.090720699204	1
bin	17.200360397676	0
bin	18.310000096148	0
bin	19.41963979462	0
bin	20.529279493092	0
bin	21.638919191563	0
bin	22.748558890035	0
bin	23.858198588507	0
bin	24.967838286979	0
scalar scenarioPRJP1.node[0].app 	sentPk:count 	2607
attr interpolationmode  none
attr source  sentPk
attr title  "packets sent, count"
scalar scenarioPRJP1.node[0].app 	sentPk:sum(packetBytes) 	1334784
attr interpolationmode  none
attr source  sentPk
attr title  "packets sent, sum(packetBytes)"
scalar scenarioPRJP1.node[0].udp 	droppedPkBadChecksum:count 	0
attr interpolationmode  none
attr title  "packets dropped (checksum error), count"
scalar scenarioPRJP1.node[0].udp 	droppedPkWrongPort:count 	0
attr interpolationmode  none
attr title  "packets dropped (wrong port), count"
scalar scenarioPRJP1.node[0].udp 	passedUpPk:count 	96
attr interpolationmode  none
attr title  "packets passed up, count"
scalar scenarioPRJP1.node[0].udp 	rcvdPk:count 	96
attr interpolationmode  none
attr source  rcvdPk
attr title  "packets received, count"
scalar scenarioPRJP1.node[0].udp 	rcvdPk:sum(packetBytes) 	49920
attr interpolationmode  none
attr source  rcvdPk
attr title  "packets received, sum(packetBytes)"
scalar scenarioPRJP1.node[0].udp 	sentPk:count 	2607
attr interpolationmode  none
attr source  sentPk
attr title  "packets sent, count"
scalar scenarioPRJP1.node[0].udp 	sentPk:sum(packetBytes) 	1355640
attr interpolationmode  none
attr source  sentPk
attr title  "packets sent, sum(packetBytes)"
scalar scenarioPRJP1.node[0].networkLayer.arp 	failedARPResolution:count 	0
attr title  "ARP failed resolutions, count"
scalar scenarioPRJP1.node[0].networkLayer.arp 	completedARPResolution:count 	11
attr title  "ARP completed resolutions, count"
scalar scenarioPRJP1.node[0].networkLayer.arp 	initiatedARPResolution:count 	5
attr title  "ARP initiated resolutions, count"
scalar scenarioPRJP1.node[0].networkLayer.arp 	sentReply:count 	5
attr title  "ARP replies sent, count"
scalar scenarioPRJP1.node[0].networkLayer.arp 	sentReq:count 	5
attr title  "ARP request sent, count"
scalar scenarioPRJP1.node[0].mobility 	startTime 	0.1
scalar scenarioPRJP1.node[0].mobility 	totalTime 	949.9
scalar scenarioPRJP1.node[0].mobility 	stopTime 	950
scalar scenarioPRJP1.node[0].mobility 	minSpeed 	2.4755839816671e-13
scalar scenarioPRJP1.node[0].mobility 	maxSpeed 	19.18567932457
scalar scenarioPRJP1.node[0].mobility 	totalDistance 	8940.470175184
scalar scenarioPRJP1.node[0].mobility 	totalCO2Emission 	2510.0496210762
scalar scenarioPRJP1.node[0].wlan[0].mgmt 	dataQueueLen:max 	52
attr interpolationmode  sample-hold
attr title  "data queue length, max"
scalar scenarioPRJP1.node[0].wlan[0].mgmt 	dataQueueLen:timeavg 	6.1962196463838e-05
attr interpolationmode  sample-hold
attr title  "data queue length, timeavg"
scalar scenarioPRJP1.node[0].wlan[0].mgmt 	dropPkByQueue:count 	0
attr interpolationmode  none
attr source  dropPkByQueue
attr title  "packets dropped by queue, count"
scalar scenarioPRJP1.node[0].wlan[0].mgmt 	dropPkByQueue:sum(packetBytes) 	0
attr interpolationmode  none
attr source  dropPkByQueue
attr title  "packets dropped by queue, sum(packetBytes)"
scalar scenarioPRJP1.node[0].wlan[0].mac 	"number of received packets" 	483
scalar scenarioPRJP1.node[0].wlan[0].mac 	"number of collisions" 	1
scalar scenarioPRJP1.node[0].wlan[0].mac 	"number of internal collisions" 	0
scalar scenarioPRJP1.node[0].wlan[0].mac 	"number of retry for AC 0" 	432
scalar scenarioPRJP1.node[0].wlan[0].mac 	"number of retry for AC 1" 	0
scalar scenarioPRJP1.node[0].wlan[0].mac 	"number of retry for AC 2" 	0
scalar scenarioPRJP1.node[0].wlan[0].mac 	"number of retry for AC 3" 	0
scalar scenarioPRJP1.node[0].wlan[0].mac 	"sent and received bits" 	725696
scalar scenarioPRJP1.node[0].wlan[0].mac 	"sent packet within AC 0" 	44
scalar scenarioPRJP1.node[0].wlan[0].mac 	"sent packet within AC 1" 	0
scalar scenarioPRJP1.node[0].wlan[0].mac 	"sent packet within AC 2" 	0
scalar scenarioPRJP1.node[0].wlan[0].mac 	"sent packet within AC 3" 	0
scalar scenarioPRJP1.node[0].wlan[0].mac 	"sent in TXOP " 	0
scalar scenarioPRJP1.node[0].wlan[0].mac 	"sentWithoutRetry AC 0" 	44
scalar scenarioPRJP1.node[0].wlan[0].mac 	"sentWithoutRetry AC 1" 	0
scalar scenarioPRJP1.node[0].wlan[0].mac 	"sentWithoutRetry AC 2" 	0
scalar scenarioPRJP1.node[0].wlan[0].mac 	"sentWithoutRetry AC 3" 	0
scalar scenarioPRJP1.node[0].wlan[0].mac 	"numGivenUp AC 0" 	72
scalar scenarioPRJP1.node[0].wlan[0].mac 	"numGivenUp AC 1" 	0
scalar scenarioPRJP1.node[0].wlan[0].mac 	"numGivenUp AC 2" 	0
scalar scenarioPRJP1.node[0].wlan[0].mac 	"numGivenUp AC 3" 	0
scalar scenarioPRJP1.node[0].wlan[0].mac 	"numDropped AC 0" 	7
scalar scenarioPRJP1.node[0].wlan[0].mac 	"numDropped AC 1" 	0
scalar scenarioPRJP1.node[0].wlan[0].mac 	"numDropped AC 2" 	0
scalar scenarioPRJP1.node[0].wlan[0].mac 	"numDropped AC 3" 	0
scalar scenarioPRJP1.node[0].wlan[0].mac 	rcvdPkFromLL:count 	1774
attr interpolationmode  none
attr source  packetReceivedFromLower
attr title  "packets received from lower layer, count"
scalar scenarioPRJP1.node[0].wlan[0].mac 	rcvdPkFromLL:sum(packetBytes) 	503618
attr interpolationmode  none
attr source  packetReceivedFromLower
attr title  "packets received from lower layer, sum(packetBytes)"
scalar scenarioPRJP1.node[0].wlan[0].mac 	sentDownPk:count 	1789
attr interpolationmode  none
attr source  packetSentToLower
attr title  "packets sent to lower layer, count"
scalar scenarioPRJP1.node[0].wlan[0].mac 	sentDownPk:sum(packetBytes) 	369998
attr interpolationmode  none
attr source  packetSentToLower
attr title  "packets sent to lower layer, sum(packetBytes)"
scalar scenarioPRJP1.node[0].wlan[0].mac 	rcvdPkFromHL:count 	881
attr interpolationmode  none
attr source  packetReceivedFromUpper
attr title  "packets received from higher layer, count"
scalar scenarioPRJP1.node[0].wlan[0].mac 	rcvdPkFromHL:sum(packetBytes) 	131720
attr interpolationmode  none
attr source  packetReceivedFromUpper
attr title  "packets received from higher layer, sum(packetBytes)"
scalar scenarioPRJP1.node[0].wlan[0].mac 	passedUpPk:count 	452
attr interpolationmode  none
attr source  packetSentToUpper
attr title  "packets passed to higher layer, count"
scalar scenarioPRJP1.node[0].wlan[0].mac 	passedUpPk:sum(packetBytes) 	86016
attr interpolationmode  none
attr source  packetSentToUpper
attr title  "packets passed to higher layer, sum(packetBytes)"
statistic scenarioPRJP1.node[0].wlan[0].radio 	radioChannel:histogram
field count 1
field mean 3
field stddev -nan
field sum 3
field sqrsum 9
field min 3
field max 3
attr interpolationmode  sample-hold
attr source  radioChannelChanged
attr title  "Radio channel, histogram"
bin	-INF	0
bin	2	0
bin	3	1
bin	4	0
scalar scenarioPRJP1.node[0].wlan[0].radio 	transmissionState:count 	7156
attr interpolationmode  sample-hold
attr source  transmissionStateChanged
attr title  "Radio transmission state, count"
scalar scenarioPRJP1.node[0].wlan[0].radio 	receptionState:count 	7129
attr interpolationmode  sample-hold
attr source  receptionStateChanged
attr title  "Radio reception state, count"
scalar scenarioPRJP1.node[0].wlan[0].radio 	radioMode:count 	3580
attr interpolationmode  sample-hold
attr source  radioModeChanged
attr title  "Radio mode, count"
statistic scenarioPRJP1.node[0].wlan[0].radio 	symbolErrorRate:histogram
field count 0
field mean -nan
field stddev -nan
field sum 0
field sqrsum 0
field min -nan
field max -nan
attr source  symbolErrorRate
attr title  "Symbol error rate, histogram"
bin	-INF	0
bin	-0.5	0
bin	-0.46666666666667	0
bin	-0.43333333333333	0
bin	-0.4	0
bin	-0.36666666666667	0
bin	-0.33333333333333	0
bin	-0.3	0
bin	-0.26666666666667	0
bin	-0.23333333333333	0
bin	-0.2	0
bin	-0.16666666666667	0
bin	-0.13333333333333	0
bin	-0.1	0
bin	-0.066666666666667	0
bin	-0.033333333333333	0
bin	0	0
bin	0.033333333333333	0
bin	0.066666666666667	0
bin	0.1	0
bin	0.13333333333333	0
bin	0.16666666666667	0
bin	0.2	0
bin	0.23333333333333	0
bin	0.26666666666667	0
bin	0.3	0
bin	0.33333333333333	0
bin	0.36666666666667	0
bin	0.4	0
bin	0.43333333333333	0
bin	0.46666666666667	0
bin	0.5	0
statistic scenarioPRJP1.node[0].wlan[0].radio 	bitErrorRate:histogram
field count 0
field mean -nan
field stddev -nan
field sum 0
field sqrsum 0
field min -nan
field max -nan
attr source  bitErrorRate
attr title  "Bit error rate, histogram"
bin	-INF	0
bin	-0.5	0
bin	-0.46666666666667	0
bin	-0.43333333333333	0
bin	-0.4	0
bin	-0.36666666666667	0
bin	-0.33333333333333	0
bin	-0.3	0
bin	-0.26666666666667	0
bin	-0.23333333333333	0
bin	-0.2	0
bin	-0.16666666666667	0
bin	-0.13333333333333	0
bin	-0.1	0
bin	-0.066666666666667	0
bin	-0.033333333333333	0
bin	0	0
bin	0.033333333333333	0
bin	0.066666666666667	0
bin	0.1	0
bin	0.13333333333333	0
bin	0.16666666666667	0
bin	0.2	0
bin	0.23333333333333	0
bin	0.26666666666667	0
bin	0.3	0
bin	0.33333333333333	0
bin	0.36666666666667	0
bin	0.4	0
bin	0.43333333333333	0
bin	0.46666666666667	0
bin	0.5	0
statistic scenarioPRJP1.node[0].wlan[0].radio 	packetErrorRate:histogram
field count 1774
field mean 0.00056705093291418
field stddev 0.023742417992383
field sum 1.0059483549898
field sqrsum 1.0000148006508
field min 0
field max 1
attr source  packetErrorRate
attr title  "Packet error rate, histogram"
bin	-INF	0
bin	-0.0014749303405054	0
bin	-0.0012782729617714	0
bin	-0.0010816155830373	0
bin	-0.00088495820430327	0
bin	-0.00068830082556921	0
bin	-0.00049164344683515	0
bin	-0.00029498606810109	0
bin	-9.832868936703e-05	1770
bin	9.832868936703e-05	0
bin	0.00029498606810109	0
bin	0.00049164344683515	1
bin	0.00068830082556921	0
bin	0.00088495820430327	0
bin	0.0010816155830373	0
bin	0.0012782729617714	0
bin	0.0014749303405054	0
bin	0.0016715877192395	0
bin	0.0018682450979736	0
bin	0.0020649024767076	0
bin	0.0022615598554417	1
bin	0.0024582172341757	0
bin	0.0026548746129098	0
bin	0.0028515319916439	1
bin	0.0030481893703779	0
bin	0.003244846749112	0
bin	0.003441504127846	0
bin	0.0036381615065801	0
bin	0.0038348188853142	0
bin	0.0040314762640482	0
bin	0.0042281336427823	0
bin	0.0044247910215163	1
statistic scenarioPRJP1.node[0].wlan[0].radio 	minSNIR:histogram
field count 1774
field mean 1579.7223940587
field stddev 8864.8088796315
field sum 2802427.5270601
field sqrsum 143757972587.78
field min 2.613779235514
field max 170208.28961207
attr source  minSNIR
attr title  "Min SNIR, histogram"
bin	-INF	0
bin	-218.30135370087	0
bin	-188.84600264269	0
bin	-159.3906515845	0
bin	-129.93530052632	0
bin	-100.47994946813	0
bin	-71.024598409948	0
bin	-41.569247351763	0
bin	-12.113896293578	24
bin	17.341454764606	13
bin	46.796805822791	4
bin	76.252156880976	3
bin	105.70750793916	293
bin	135.16285899735	651
bin	164.61821005553	320
bin	194.07356111372	35
bin	223.5289121719	31
bin	252.98426323008	25
bin	282.43961428827	51
bin	311.89496534645	44
bin	341.35031640464	24
bin	370.80566746282	7
bin	400.26101852101	8
bin	429.71636957919	4
bin	459.17172063738	3
bin	488.62707169556	7
bin	518.08242275375	12
bin	547.53777381193	9
bin	576.99312487012	3
bin	606.4484759283	5
bin	635.90382698649	3
bin	665.35917804467	195
scalar scenarioPRJP1.node[0].lo0.lo 	droppedPkBitError:count 	0
attr interpolationmode  none
attr source  dropPkBitError
attr title  "packets dropped/bit error, count"
scalar scenarioPRJP1.node[0].lo0.lo 	droppedPkBitError:sum(packetBytes) 	0
attr interpolationmode  none
attr source  dropPkBitError
attr title  "packets dropped/bit error, sum(packetBytes)"
scalar scenarioPRJP1.node[0].lo0.lo 	rcvdPkFromHL:count 	0
attr interpolationmode  none
attr source  packetReceivedFromUpper
attr title  "packets received from higher layer, count"
scalar scenarioPRJP1.node[0].lo0.lo 	rcvdPkFromHL:sum(packetBytes) 	0
attr interpolationmode  none
attr source  packetReceivedFromUpper
attr title  "packets received from higher layer, sum(packetBytes)"
scalar scenarioPRJP1.node[0].lo0.lo 	passedUpPk:count 	0
attr interpolationmode  none
attr source  packetSentToUpper
attr title  "packets passed to higher layer, count"
scalar scenarioPRJP1.node[0].lo0.lo 	passedUpPk:sum(packetBytes) 	0
attr interpolationmode  none
attr source  packetSentToUpper
attr title  "packets passed to higher layer, sum(packetBytes)"
scalar scenarioPRJP1.node[5].app 	"Total sent" 	2608
scalar scenarioPRJP1.node[5].app 	"Total received" 	79
scalar scenarioPRJP1.node[5].app 	"Total deleted" 	131
scalar scenarioPRJP1.node[5].app 	dropPk:count 	131
attr interpolationmode  none
attr source  dropPk
attr title  "packets dropped, count"
scalar scenarioPRJP1.node[5].app 	dropPk:sum(packetBytes) 	67072
attr interpolationmode  none
attr source  dropPk
attr title  "packets dropped, sum(packetBytes)"
scalar scenarioPRJP1.node[5].app 	outOfOrderPk:count 	126
attr interpolationmode  none
attr source  outOfOrderPk
attr title  "packets received out of order, count"
scalar scenarioPRJP1.node[5].app 	outOfOrderPk:sum(packetBytes) 	64512
attr interpolationmode  none
attr source  outOfOrderPk
attr title  "packets received out of order, sum(packetBytes)"
scalar scenarioPRJP1.node[5].app 	rcvdPk:count 	79
attr interpolationmode  none
attr source  rcvdPk
attr title  "packets received, count"
scalar scenarioPRJP1.node[5].app 	rcvdPk:sum(packetBytes) 	40448
attr interpolationmode  none
attr source  rcvdPk
attr title  "packets received, sum(packetBytes)"
statistic scenarioPRJP1.node[5].app 	endToEndDelay:histogram
field count 79
field mean 0.95326463033491
field stddev 3.1265482852602
field sum 75.307905796458
field sqrsum 834.26208902532
field min 0.000945257682
field max 19.749811629731
attr interpolationmode  none
attr source  messageAge(rcvdPk)
attr title  "delay, histogram"
attr unit  s
bin	-INF	0
bin	-9.8734879283425	0
bin	-8.5568968368726	0
bin	-7.2403057454026	0
bin	-5.9237146539327	0
bin	-4.6071235624628	0
bin	-3.2905324709928	0
bin	-1.9739413795229	0
bin	-0.65735028805296	68
bin	0.65924080341697	4
bin	1.9758318948869	0
bin	3.2924229863568	0
bin	4.6090140778268	1
bin	5.9256051692967	1
bin	7.2421962607666	1
bin	8.5587873522366	1
bin	9.8753784437065	2
bin	11.191969535176	0
bin	12.508560626646	0
bin	13.825151718116	0
bin	15.141742809586	0
bin	16.458333901056	0
bin	17.774924992526	0
bin	19.091516083996	1
bin	20.408107175466	0
bin	21.724698266936	0
bin	23.041289358406	0
bin	24.357880449876	0
bin	25.674471541346	0
bin	26.991062632816	0
bin	28.307653724286	0
bin	29.624244815755	0
scalar scenarioPRJP1.node[5].app 	sentPk:count 	2608
attr interpolationmode  none
attr source  sentPk
attr title  "packets sent, count"
scalar scenarioPRJP1.node[5].app 	sentPk:sum(packetBytes) 	1335296
attr interpolationmode  none
attr source  sentPk
attr title  "packets sent, sum(packetBytes)"
scalar scenarioPRJP1.node[5].udp 	droppedPkBadChecksum:count 	0
attr interpolationmode  none
attr title  "packets dropped (checksum error), count"
scalar scenarioPRJP1.node[5].udp 	droppedPkWrongPort:count 	0
attr interpolationmode  none
attr title  "packets dropped (wrong port), count"
scalar scenarioPRJP1.node[5].udp 	passedUpPk:count 	336
attr interpolationmode  none
attr title  "packets passed up, count"
scalar scenarioPRJP1.node[5].udp 	rcvdPk:count 	336
attr interpolationmode  none
attr source  rcvdPk
attr title  "packets received, count"
scalar scenarioPRJP1.node[5].udp 	rcvdPk:sum(packetBytes) 	174720
attr interpolationmode  none
attr source  rcvdPk
attr title  "packets received, sum(packetBytes)"
scalar scenarioPRJP1.node[5].udp 	sentPk:count 	2608
attr interpolationmode  none
attr source  sentPk
attr title  "packets sent, count"
scalar scenarioPRJP1.node[5].udp 	sentPk:sum(packetBytes) 	1356160
attr interpolationmode  none
attr source  sentPk
attr title  "packets sent, sum(packetBytes)"
scalar scenarioPRJP1.node[5].networkLayer.arp 	failedARPResolution:count 	0
attr title  "ARP failed resolutions, count"
scalar scenarioPRJP1.node[5].networkLayer.arp 	completedARPResolution:count 	13
attr title  "ARP completed resolutions, count"
scalar scenarioPRJP1.node[5].networkLayer.arp 	initiatedARPResolution:count 	9
attr title  "ARP initiated resolutions, count"
scalar scenarioPRJP1.node[5].networkLayer.arp 	sentReply:count 	3
attr title  "ARP replies sent, count"
scalar scenarioPRJP1.node[5].networkLayer.arp 	sentReq:count 	9
attr title  "ARP request sent, count"
scalar scenarioPRJP1.node[5].mobility 	startTime 	2.5
scalar scenarioPRJP1.node[5].mobility 	totalTime 	947.5
scalar scenarioPRJP1.node[5].mobility 	stopTime 	950
scalar scenarioPRJP1.node[5].mobility 	minSpeed 	2.4755358334159e-13
scalar scenarioPRJP1.node[5].mobility 	maxSpeed 	16.960311381112
scalar scenarioPRJP1.node[5].mobility 	totalDistance 	9788.853066877
scalar scenarioPRJP1.node[5].mobility 	totalCO2Emission 	2496.1336899973
scalar scenarioPRJP1.node[5].wlan[0].mgmt 	dataQueueLen:max 	84
attr interpolationmode  sample-hold
attr title  "data queue length, max"
scalar scenarioPRJP1.node[5].wlan[0].mgmt 	dataQueueLen:timeavg 	0.00076155038713879
attr interpolationmode  sample-hold
attr title  "data queue length, timeavg"
scalar scenarioPRJP1.node[5].wlan[0].mgmt 	dropPkByQueue:count 	0
attr interpolationmode  none
attr source  dropPkByQueue
attr title  "packets dropped by queue, count"
scalar scenarioPRJP1.node[5].wlan[0].mgmt 	dropPkByQueue:sum(packetBytes) 	0
attr interpolationmode  none
attr source  dropPkByQueue
attr title  "packets dropped by queue, sum(packetBytes)"
scalar scenarioPRJP1.node[5].wlan[0].mac 	"number of received packets" 	1299
scalar scenarioPRJP1.node[5].wlan[0].mac 	"number of collisions" 	10
scalar scenarioPRJP1.node[5].wlan[0].mac 	"number of internal collisions" 	0
scalar scenarioPRJP1.node[5].wlan[0].mac 	"number of retry for AC 0" 	1079
scalar scenarioPRJP1.node[5].wlan[0].mac 	"number of retry for AC 1" 	0
scalar scenarioPRJP1.node[5].wlan[0].mac 	"number of retry for AC 2" 	0
scalar scenarioPRJP1.node[5].wlan[0].mac 	"number of retry for AC 3" 	0
scalar scenarioPRJP1.node[5].wlan[0].mac 	"sent and received bits" 	1714624
scalar scenarioPRJP1.node[5].wlan[0].mac 	"sent packet within AC 0" 	193
scalar scenarioPRJP1.node[5].wlan[0].mac 	"sent packet within AC 1" 	0
scalar scenarioPRJP1.node[5].wlan[0].mac 	"sent packet within AC 2" 	0
scalar scenarioPRJP1.node[5].wlan[0].mac 	"sent packet within AC 3" 	0
scalar scenarioPRJP1.node[5].wlan[0].mac 	"sent in TXOP " 	0
scalar scenarioPRJP1.node[5].wlan[0].mac 	"sentWithoutRetry AC 0" 	188
scalar scenarioPRJP1.node[5].wlan[0].mac 	"sentWithoutRetry AC 1" 	0
scalar scenarioPRJP1.node[5].wlan[0].mac 	"sentWithoutRetry AC 2" 	0
scalar scenarioPRJP1.node[5].wlan[0].mac 	"sentWithoutRetry AC 3" 	0
scalar scenarioPRJP1.node[5].wlan[0].mac 	"numGivenUp AC 0" 	179
scalar scenarioPRJP1.node[5].wlan[0].mac 	"numGivenUp AC 1" 	0
scalar scenarioPRJP1.node[5].wlan[0].mac 	"numGivenUp AC 2" 	0
scalar scenarioPRJP1.node[5].wlan[0].mac 	"numGivenUp AC 3" 	0
scalar scenarioPRJP1.node[5].wlan[0].mac 	"numDropped AC 0" 	30
scalar scenarioPRJP1.node[5].wlan[0].mac 	"numDropped AC 1" 	0
scalar scenarioPRJP1.node[5].wlan[0].mac 	"numDropped AC 2" 	0
scalar scenarioPRJP1.node[5].wlan[0].mac 	"numDropped AC 3" 	0
scalar scenarioPRJP1.node[5].wlan[0].mac 	rcvdPkFromLL:count 	5329
attr interpolationmode  none
attr source  packetReceivedFromLower
attr title  "packets received from lower layer, count"
scalar scenarioPRJP1.node[5].wlan[0].mac 	rcvdPkFromLL:sum(packetBytes) 	1344854
attr interpolationmode  none
attr source  packetReceivedFromLower
attr title  "packets received from lower layer, sum(packetBytes)"
scalar scenarioPRJP1.node[5].wlan[0].mac 	sentDownPk:count 	3938
attr interpolationmode  none
attr source  packetSentToLower
attr title  "packets sent to lower layer, count"
scalar scenarioPRJP1.node[5].wlan[0].mac 	sentDownPk:sum(packetBytes) 	932594
attr interpolationmode  none
attr source  packetSentToLower
attr title  "packets sent to lower layer, sum(packetBytes)"
scalar scenarioPRJP1.node[5].wlan[0].mac 	rcvdPkFromHL:count 	1590
attr interpolationmode  none
attr source  packetReceivedFromUpper
attr title  "packets received from higher layer, count"
scalar scenarioPRJP1.node[5].wlan[0].mac 	rcvdPkFromHL:sum(packetBytes) 	330716
attr interpolationmode  none
attr source  packetReceivedFromUpper
attr title  "packets received from higher layer, sum(packetBytes)"
scalar scenarioPRJP1.node[5].wlan[0].mac 	passedUpPk:count 	1273
attr interpolationmode  none
attr source  packetSentToUpper
attr title  "packets passed to higher layer, count"
scalar scenarioPRJP1.node[5].wlan[0].mac 	passedUpPk:sum(packetBytes) 	275196
attr interpolationmode  none
attr source  packetSentToUpper
attr title  "packets passed to higher layer, sum(packetBytes)"
statistic scenarioPRJP1.node[5].wlan[0].radio 	radioChannel:histogram
field count 1
field mean 3
field stddev -nan
field sum 3
field sqrsum 9
field min 3
field max 3
attr interpolationmode  sample-hold
attr source  radioChannelChanged
attr title  "Radio channel, histogram"
bin	-INF	0
bin	2	0
bin	3	1
bin	4	0
scalar scenarioPRJP1.node[5].wlan[0].radio 	transmissionState:count 	15752
attr interpolationmode  sample-hold
attr source  transmissionStateChanged
attr title  "Radio transmission state, count"
scalar scenarioPRJP1.node[5].wlan[0].radio 	receptionState:count 	18543
attr interpolationmode  sample-hold
attr source  receptionStateChanged
attr title  "Radio reception state, count"
scalar scenarioPRJP1.node[5].wlan[0].radio 	radioMode:count 	7878
attr interpolationmode  sample-hold
attr source  radioModeChanged
attr title  "Radio mode, count"
statistic scenarioPRJP1.node[5].wlan[0].radio 	symbolErrorRate:histogram
field count 0
field mean -nan
field stddev -nan
field sum 0
field sqrsum 0
field min -nan
field max -nan
attr source  symbolErrorRate
attr title  "Symbol error rate, histogram"
bin	-INF	0
bin	-0.5	0
bin	-0.46666666666667	0
bin	-0.43333333333333	0
bin	-0.4	0
bin	-0.36666666666667	0
bin	-0.33333333333333	0
bin	-0.3	0
bin	-0.26666666666667	0
bin	-0.23333333333333	0
bin	-0.2	0
bin	-0.16666666666667	0
bin	-0.13333333333333	0
bin	-0.1	0
bin	-0.066666666666667	0
bin	-0.033333333333333	0
bin	0	0
bin	0.033333333333333	0
bin	0.066666666666667	0
bin	0.1	0
bin	0.13333333333333	0
bin	0.16666666666667	0
bin	0.2	0
bin	0.23333333333333	0
bin	0.26666666666667	0
bin	0.3	0
bin	0.33333333333333	0
bin	0.36666666666667	0
bin	0.4	0
bin	0.43333333333333	0
bin	0.46666666666667	0
bin	0.5	0
statistic scenarioPRJP1.node[5].wlan[0].radio 	bitErrorRate:histogram
field count 0
field mean -nan
field stddev -nan
field sum 0
field sqrsum 0
field min -nan
field max -nan
attr source  bitErrorRate
attr title  "Bit error rate, histogram"
bin	-INF	0
bin	-0.5	0
bin	-0.46666666666667	0
bin	-0.43333333333333	0
bin	-0.4	0
bin	-0.36666666666667	0
bin	-0.33333333333333	0
bin	-0.3	0
bin	-0.26666666666667	0
bin	-0.23333333333333	0
bin	-0.2	0
bin	-0.16666666666667	0
bin	-0.13333333333333	0
bin	-0.1	0
bin	-0.066666666666667	0
bin	-0.033333333333333	0
bin	0	0
bin	0.033333333333333	0
bin	0.066666666666667	0
bin	0.1	0
bin	0.13333333333333	0
bin	0.16666666666667	0
bin	0.2	0
bin	0.23333333333333	0
bin	0.26666666666667	0
bin	0.3	0
bin	0.33333333333333	0
bin	0.36666666666667	0
bin	0.4	0
bin	0.43333333333333	0
bin	0.46666666666667	0
bin	0.5	0
statistic scenarioPRJP1.node[5].wlan[0].radio 	packetErrorRate:histogram
field count 5329
field mean 0.0014417331265595
field stddev 0.03660260412048
field sum 7.6829958314355
field sqrsum 7.1492681777195
field min 0
field max 1
attr source  packetErrorRate
attr title  "Packet error rate, histogram"
bin	-INF	0
bin	-0.00048953459001527	0
bin	-0.00042426331134657	0
bin	-0.00035899203267787	0
bin	-0.00029372075400916	0
bin	-0.00022844947534046	0
bin	-0.00016317819667176	0
bin	-9.7906918003055e-05	0
bin	-3.2635639334352e-05	5307
bin	3.2635639334351e-05	1
bin	9.7906918003054e-05	1
bin	0.00016317819667176	0
bin	0.00022844947534046	0
bin	0.00029372075400916	0
bin	0.00035899203267787	1
bin	0.00042426331134657	0
bin	0.00048953459001527	0
bin	0.00055480586868398	1
bin	0.00062007714735268	0
bin	0.00068534842602138	0
bin	0.00075061970469008	0
bin	0.00081589098335879	0
bin	0.00088116226202749	0
bin	0.00094643354069619	2
bin	0.0010117048193649	0
bin	0.0010769760980336	0
bin	0.0011422473767023	0
bin	0.001207518655371	0
bin	0.0012727899340397	2
bin	0.0013380612127084	0
bin	0.0014033324913771	0
bin	0.0014686037700458	14
statistic scenarioPRJP1.node[5].wlan[0].radio 	minSNIR:histogram
field count 5329
field mean 25847.491737941
field stddev 121963.68629116
field sum 137741283.47149
field sqrsum 82815016728924
field min 0.86997660824361
field max 753239.71923443
attr source  minSNIR
attr title  "Min SNIR, histogram"
bin	-INF	0
bin	-172.57119798508	0
bin	-149.2255809786	0
bin	-125.87996397211	0
bin	-102.53434696562	0
bin	-79.188729959139	0
bin	-55.843112952653	0
bin	-32.497495946168	0
bin	-9.1518789396823	167
bin	14.193738066803	50
bin	37.539355073289	15
bin	60.884972079774	9
bin	84.23058908626	2
bin	107.57620609275	29
bin	130.92182309923	2178
bin	154.26744010572	488
bin	177.6130571122	176
bin	200.95867411869	170
bin	224.30429112517	102
bin	247.64990813166	64
bin	270.99552513814	67
bin	294.34114214463	62
bin	317.68675915112	78
bin	341.0323761576	180
bin	364.37799316409	235
bin	387.72361017057	145
bin	411.06922717706	79
bin	434.41484418354	121
bin	457.76046119003	89
bin	481.10607819651	5
bin	504.451695203	7
bin	527.79731220949	811
scalar scenarioPRJP1.node[5].lo0.lo 	droppedPkBitError:count 	0
attr interpolationmode  none
attr source  dropPkBitError
attr title  "packets dropped/bit error, count"
scalar scenarioPRJP1.node[5].lo0.lo 	droppedPkBitError:sum(packetBytes) 	0
attr interpolationmode  none
attr source  dropPkBitError
attr title  "packets dropped/bit error, sum(packetBytes)"
scalar scenarioPRJP1.node[5].lo0.lo 	rcvdPkFromHL:count 	0
attr interpolationmode  none
attr source  packetReceivedFromUpper
attr title  "packets received from higher layer, count"
scalar scenarioPRJP1.node[5].lo0.lo 	rcvdPkFromHL:sum(packetBytes) 	0
attr interpolationmode  none
attr source  packetReceivedFromUpper
attr title  "packets received from higher layer, sum(packetBytes)"
scalar scenarioPRJP1.node[5].lo0.lo 	passedUpPk:count 	0
attr interpolationmode  none
attr source  packetSentToUpper
attr title  "packets passed to higher layer, count"
scalar scenarioPRJP1.node[5].lo0.lo 	passedUpPk:sum(packetBytes) 	0
attr interpolationmode  none
attr source  packetSentToUpper
attr title  "packets passed to higher layer, sum(packetBytes)"
scalar scenarioPRJP1.node[1].app 	"Total sent" 	2604
scalar scenarioPRJP1.node[1].app 	"Total received" 	210
scalar scenarioPRJP1.node[1].app 	"Total deleted" 	167
scalar scenarioPRJP1.node[1].app 	dropPk:count 	167
attr interpolationmode  none
attr source  dropPk
attr title  "packets dropped, count"
scalar scenarioPRJP1.node[1].app 	dropPk:sum(packetBytes) 	85504
attr interpolationmode  none
attr source  dropPk
attr title  "packets dropped, sum(packetBytes)"
scalar scenarioPRJP1.node[1].app 	outOfOrderPk:count 	16
attr interpolationmode  none
attr source  outOfOrderPk
attr title  "packets received out of order, count"
scalar scenarioPRJP1.node[1].app 	outOfOrderPk:sum(packetBytes) 	8192
attr interpolationmode  none
attr source  outOfOrderPk
attr title  "packets received out of order, sum(packetBytes)"
scalar scenarioPRJP1.node[1].app 	rcvdPk:count 	210
attr interpolationmode  none
attr source  rcvdPk
attr title  "packets received, count"
scalar scenarioPRJP1.node[1].app 	rcvdPk:sum(packetBytes) 	107520
attr interpolationmode  none
attr source  rcvdPk
attr title  "packets received, sum(packetBytes)"
statistic scenarioPRJP1.node[1].app 	endToEndDelay:histogram
field count 210
field mean 1.7568606226653
field stddev 4.6365696492515
field sum 368.94073075971
field sqrsum 5141.2130674524
field min 0.000945011007
field max 19.99284784571
attr interpolationmode  none
attr source  messageAge(rcvdPk)
attr title  "delay, histogram"
attr unit  s
bin	-INF	0
bin	-9.9950064063445	0
bin	-8.662212884031	0
bin	-7.3294193617174	0
bin	-5.9966258394039	0
bin	-4.6638323170904	0
bin	-3.3310387947768	0
bin	-1.9982452724633	0
bin	-0.66545175014977	178
bin	0.66734177216377	1
bin	2.0001352944773	2
bin	3.3329288167908	0
bin	4.6657223391044	3
bin	5.9985158614179	3
bin	7.3313093837314	2
bin	8.664102906045	2
bin	9.9968964283585	2
bin	11.329689950672	4
bin	12.662483472986	1
bin	13.995276995299	1
bin	15.328070517613	5
bin	16.660864039926	1
bin	17.99365756224	4
bin	19.326451084553	1
bin	20.659244606867	0
bin	21.99203812918	0
bin	23.324831651494	0
bin	24.657625173807	0
bin	25.990418696121	0
bin	27.323212218434	0
bin	28.656005740748	0
bin	29.988799263061	0
scalar scenarioPRJP1.node[1].app 	sentPk:count 	2604
attr interpolationmode  none
attr source  sentPk
attr title  "packets sent, count"
scalar scenarioPRJP1.node[1].app 	sentPk:sum(packetBytes) 	1333248
attr interpolationmode  none
attr source  sentPk
attr title  "packets sent, sum(packetBytes)"
scalar scenarioPRJP1.node[1].udp 	droppedPkBadChecksum:count 	0
attr interpolationmode  none
attr title  "packets dropped (checksum error), count"
scalar scenarioPRJP1.node[1].udp 	droppedPkWrongPort:count 	0
attr interpolationmode  none
attr title  "packets dropped (wrong port), count"
scalar scenarioPRJP1.node[1].udp 	passedUpPk:count 	393
attr interpolationmode  none
attr title  "packets passed up, count"
scalar scenarioPRJP1.node[1].udp 	rcvdPk:count 	393
attr interpolationmode  none
attr source  rcvdPk
attr title  "packets received, count"
scalar scenarioPRJP1.node[1].udp 	rcvdPk:sum(packetBytes) 	204360
attr interpolationmode  none
attr source  rcvdPk
attr title  "packets received, sum(packetBytes)"
scalar scenarioPRJP1.node[1].udp 	sentPk:count 	2604
attr interpolationmode  none
attr source  sentPk
attr title  "packets sent, count"
scalar scenarioPRJP1.node[1].udp 	sentPk:sum(packetBytes) 	1354080
attr interpolationmode  none
attr source  sentPk
attr title  "packets sent, sum(packetBytes)"
scalar scenarioPRJP1.node[1].networkLayer.arp 	failedARPResolution:count 	0
attr title  "ARP failed resolutions, count"
scalar scenarioPRJP1.node[1].networkLayer.arp 	completedARPResolution:count 	19
attr title  "ARP completed resolutions, count"
scalar scenarioPRJP1.node[1].networkLayer.arp 	initiatedARPResolution:count 	8
attr title  "ARP initiated resolutions, count"
scalar scenarioPRJP1.node[1].networkLayer.arp 	sentReply:count 	8
attr title  "ARP replies sent, count"
scalar scenarioPRJP1.node[1].networkLayer.arp 	sentReq:count 	8
attr title  "ARP request sent, count"
scalar scenarioPRJP1.node[1].mobility 	startTime 	0.1
scalar scenarioPRJP1.node[1].mobility 	totalTime 	949.9
scalar scenarioPRJP1.node[1].mobility 	stopTime 	950
scalar scenarioPRJP1.node[1].mobility 	minSpeed 	2.4755445311884e-13
scalar scenarioPRJP1.node[1].mobility 	maxSpeed 	17.217121887639
scalar scenarioPRJP1.node[1].mobility 	totalDistance 	9268.3509456658
scalar scenarioPRJP1.node[1].mobility 	totalCO2Emission 	2418.9288987359
scalar scenarioPRJP1.node[1].wlan[0].mgmt 	dataQueueLen:max 	100
attr interpolationmode  sample-hold
attr title  "data queue length, max"
scalar scenarioPRJP1.node[1].wlan[0].mgmt 	dataQueueLen:timeavg 	0.025458952769837
attr interpolationmode  sample-hold
attr title  "data queue length, timeavg"
scalar scenarioPRJP1.node[1].wlan[0].mgmt 	dropPkByQueue:count 	16
attr interpolationmode  none
attr source  dropPkByQueue
attr title  "packets dropped by queue, count"
scalar scenarioPRJP1.node[1].wlan[0].mgmt 	dropPkByQueue:sum(packetBytes) 	9216
attr interpolationmode  none
attr source  dropPkByQueue
attr title  "packets dropped by queue, sum(packetBytes)"
scalar scenarioPRJP1.node[1].wlan[0].mac 	"number of received packets" 	1773
scalar scenarioPRJP1.node[1].wlan[0].mac 	"number of collisions" 	12
scalar scenarioPRJP1.node[1].wlan[0].mac 	"number of internal collisions" 	0
scalar scenarioPRJP1.node[1].wlan[0].mac 	"number of retry for AC 0" 	970
scalar scenarioPRJP1.node[1].wlan[0].mac 	"number of retry for AC 1" 	0
scalar scenarioPRJP1.node[1].wlan[0].mac 	"number of retry for AC 2" 	0
scalar scenarioPRJP1.node[1].wlan[0].mac 	"number of retry for AC 3" 	0
scalar scenarioPRJP1.node[1].wlan[0].mac 	"sent and received bits" 	3389536
scalar scenarioPRJP1.node[1].wlan[0].mac 	"sent packet within AC 0" 	543
scalar scenarioPRJP1.node[1].wlan[0].mac 	"sent packet within AC 1" 	0
scalar scenarioPRJP1.node[1].wlan[0].mac 	"sent packet within AC 2" 	0
scalar scenarioPRJP1.node[1].wlan[0].mac 	"sent packet within AC 3" 	0
scalar scenarioPRJP1.node[1].wlan[0].mac 	"sent in TXOP " 	0
scalar scenarioPRJP1.node[1].wlan[0].mac 	"sentWithoutRetry AC 0" 	529
scalar scenarioPRJP1.node[1].wlan[0].mac 	"sentWithoutRetry AC 1" 	0
scalar scenarioPRJP1.node[1].wlan[0].mac 	"sentWithoutRetry AC 2" 	0
scalar scenarioPRJP1.node[1].wlan[0].mac 	"sentWithoutRetry AC 3" 	0
scalar scenarioPRJP1.node[1].wlan[0].mac 	"numGivenUp AC 0" 	159
scalar scenarioPRJP1.node[1].wlan[0].mac 	"numGivenUp AC 1" 	0
scalar scenarioPRJP1.node[1].wlan[0].mac 	"numGivenUp AC 2" 	0
scalar scenarioPRJP1.node[1].wlan[0].mac 	"numGivenUp AC 3" 	0
scalar scenarioPRJP1.node[1].wlan[0].mac 	"numDropped AC 0" 	94
scalar scenarioPRJP1.node[1].wlan[0].mac 	"numDropped AC 1" 	0
scalar scenarioPRJP1.node[1].wlan[0].mac 	"numDropped AC 2" 	0
scalar scenarioPRJP1.node[1].wlan[0].mac 	"numDropped AC 3" 	0
scalar scenarioPRJP1.node[1].wlan[0].mac 	rcvdPkFromLL:count 	6695
attr interpolationmode  none
attr source  packetReceivedFromLower
attr title  "packets received from lower layer, count"
scalar scenarioPRJP1.node[1].wlan[0].mac 	rcvdPkFromLL:sum(packetBytes) 	1479634
attr interpolationmode  none
attr source  packetReceivedFromLower
attr title  "packets received from lower layer, sum(packetBytes)"
scalar scenarioPRJP1.node[1].wlan[0].mac 	sentDownPk:count 	4764
attr interpolationmode  none
attr source  packetSentToLower
attr title  "packets sent to lower layer, count"
scalar scenarioPRJP1.node[1].wlan[0].mac 	sentDownPk:sum(packetBytes) 	1032402
attr interpolationmode  none
attr source  packetSentToLower
attr title  "packets sent to lower layer, sum(packetBytes)"
scalar scenarioPRJP1.node[1].wlan[0].mac 	rcvdPkFromHL:count 	2115
attr interpolationmode  none
attr source  packetReceivedFromUpper
attr title  "packets received from higher layer, count"
scalar scenarioPRJP1.node[1].wlan[0].mac 	rcvdPkFromHL:sum(packetBytes) 	553060
attr interpolationmode  none
attr source  packetReceivedFromUpper
attr title  "packets received from higher layer, sum(packetBytes)"
scalar scenarioPRJP1.node[1].wlan[0].mac 	passedUpPk:count 	1942
attr interpolationmode  none
attr source  packetSentToUpper
attr title  "packets passed to higher layer, count"
scalar scenarioPRJP1.node[1].wlan[0].mac 	passedUpPk:sum(packetBytes) 	436640
attr interpolationmode  none
attr source  packetSentToUpper
attr title  "packets passed to higher layer, sum(packetBytes)"
statistic scenarioPRJP1.node[1].wlan[0].radio 	radioChannel:histogram
field count 1
field mean 3
field stddev -nan
field sum 3
field sqrsum 9
field min 3
field max 3
attr interpolationmode  sample-hold
attr source  radioChannelChanged
attr title  "Radio channel, histogram"
bin	-INF	0
bin	2	0
bin	3	1
bin	4	0
scalar scenarioPRJP1.node[1].wlan[0].radio 	transmissionState:count 	19056
attr interpolationmode  sample-hold
attr source  transmissionStateChanged
attr title  "Radio transmission state, count"
scalar scenarioPRJP1.node[1].wlan[0].radio 	receptionState:count 	22944
attr interpolationmode  sample-hold
attr source  receptionStateChanged
attr title  "Radio reception state, count"
scalar scenarioPRJP1.node[1].wlan[0].radio 	radioMode:count 	9530
attr interpolationmode  sample-hold
attr source  radioModeChanged
attr title  "Radio mode, count"
statistic scenarioPRJP1.node[1].wlan[0].radio 	symbolErrorRate:histogram
field count 0
field mean -nan
field stddev -nan
field sum 0
field sqrsum 0
field min -nan
field max -nan
attr source  symbolErrorRate
attr title  "Symbol error rate, histogram"
bin	-INF	0
bin	-0.5	0
bin	-0.46666666666667	0
bin	-0.43333333333333	0
bin	-0.4	0
bin	-0.36666666666667	0
bin	-0.33333333333333	0
bin	-0.3	0
bin	-0.26666666666667	0
bin	-0.23333333333333	0
bin	-0.2	0
bin	-0.16666666666667	0
bin	-0.13333333333333	0
bin	-0.1	0
bin	-0.066666666666667	0
bin	-0.033333333333333	0
bin	0	0
bin	0.033333333333333	0
bin	0.066666666666667	0
bin	0.1	0
bin	0.13333333333333	0
bin	0.16666666666667	0
bin	0.2	0
bin	0.23333333333333	0
bin	0.26666666666667	0
bin	0.3	0
bin	0.33333333333333	0
bin	0.36666666666667	0
bin	0.4	0
bin	0.43333333333333	0
bin	0.46666666666667	0
bin	0.5	0
statistic scenarioPRJP1.node[1].wlan[0].radio 	bitErrorRate:histogram
field count 0
field mean -nan
field stddev -nan
field sum 0
field sqrsum 0
field min -nan
field max -nan
attr source  bitErrorRate
attr title  "Bit error rate, histogram"
bin	-INF	0
bin	-0.5	0
bin	-0.46666666666667	0
bin	-0.43333333333333	0
bin	-0.4	0
bin	-0.36666666666667	0
bin	-0.33333333333333	0
bin	-0.3	0
bin	-0.26666666666667	0
bin	-0.23333333333333	0
bin	-0.2	0
bin	-0.16666666666667	0
bin	-0.13333333333333	0
bin	-0.1	0
bin	-0.066666666666667	0
bin	-0.033333333333333	0
bin	0	0
bin	0.033333333333333	0
bin	0.066666666666667	0
bin	0.1	0
bin	0.13333333333333	0
bin	0.16666666666667	0
bin	0.2	0
bin	0.23333333333333	0
bin	0.26666666666667	0
bin	0.3	0
bin	0.33333333333333	0
bin	0.36666666666667	0
bin	0.4	0
bin	0.43333333333333	0
bin	0.46666666666667	0
bin	0.5	0
statistic scenarioPRJP1.node[1].wlan[0].radio 	packetErrorRate:histogram
field count 6695
field mean 0.0017307714223093
field stddev 0.040964356380539
field sum 11.587514672361
field sqrsum 11.25311277589
field min 0
field max 1
attr source  packetErrorRate
attr title  "Packet error rate, histogram"
bin	-INF	0
bin	-0.5	0
bin	-0.46666666666667	0
bin	-0.43333333333333	0
bin	-0.4	0
bin	-0.36666666666667	0
bin	-0.33333333333333	0
bin	-0.3	0
bin	-0.26666666666667	0
bin	-0.23333333333333	0
bin	-0.2	0
bin	-0.16666666666667	0
bin	-0.13333333333333	0
bin	-0.1	0
bin	-0.066666666666667	0
bin	-0.033333333333333	0
bin	0	6683
bin	0.033333333333333	0
bin	0.066666666666667	0
bin	0.1	0
bin	0.13333333333333	0
bin	0.16666666666667	0
bin	0.2	0
bin	0.23333333333333	0
bin	0.26666666666667	0
bin	0.3	0
bin	0.33333333333333	0
bin	0.36666666666667	0
bin	0.4	0
bin	0.43333333333333	0
bin	0.46666666666667	0
bin	0.5	12
statistic scenarioPRJP1.node[1].wlan[0].radio 	minSNIR:histogram
field count 6695
field mean 34444.887810916
field stddev 113185.22390059
field sum 230608523.89408
field sqrsum 93699415257476
field min 0.00080617681654831
field max 753239.71923443
attr source  minSNIR
attr title  "Min SNIR, histogram"
bin	-INF	0
bin	-4164.4484137209	0
bin	-3583.8663695497	0
bin	-3003.2843253784	0
bin	-2422.7022812072	0
bin	-1842.120237036	0
bin	-1261.5381928648	0
bin	-680.95614869354	0
bin	-100.37410452232	4481
bin	480.2079396489	283
bin	1060.7899838201	203
bin	1641.3720279913	34
bin	2221.9540721626	32
bin	2802.5361163338	27
bin	3383.118160505	24
bin	3963.7002046762	159
bin	4544.2822488475	13
bin	5124.8642930187	46
bin	5705.4463371899	52
bin	6286.0283813611	21
bin	6866.6104255323	11
bin	7447.1924697036	12
bin	8027.7745138748	13
bin	8608.356558046	4
bin	9188.9386022172	11
bin	9769.5206463885	7
bin	10350.10269056	11
bin	10930.684734731	10
bin	11511.266778902	23
bin	12091.848823073	9
bin	12672.430867245	12
bin	13253.012911416	1197
scalar scenarioPRJP1.node[1].lo0.lo 	droppedPkBitError:count 	0
attr interpolationmode  none
attr source  dropPkBitError
attr title  "packets dropped/bit error, count"
scalar scenarioPRJP1.node[1].lo0.lo 	droppedPkBitError:sum(packetBytes) 	0
attr interpolationmode  none
attr source  dropPkBitError
attr title  "packets dropped/bit error, sum(packetBytes)"
scalar scenarioPRJP1.node[1].lo0.lo 	rcvdPkFromHL:count 	0
attr interpolationmode  none
attr source  packetReceivedFromUpper
attr title  "packets received from higher layer, count"
scalar scenarioPRJP1.node[1].lo0.lo 	rcvdPkFromHL:sum(packetBytes) 	0
attr interpolationmode  none
attr source  packetReceivedFromUpper
attr title  "packets received from higher layer, sum(packetBytes)"
scalar scenarioPRJP1.node[1].lo0.lo 	passedUpPk:count 	0
attr interpolationmode  none
attr source  packetSentToUpper
attr title  "packets passed to higher layer, count"
scalar scenarioPRJP1.node[1].lo0.lo 	passedUpPk:sum(packetBytes) 	0
attr interpolationmode  none
attr source  packetSentToUpper
attr title  "packets passed to higher layer, sum(packetBytes)"
scalar scenarioPRJP1.node[6].app 	"Total sent" 	2610
scalar scenarioPRJP1.node[6].app 	"Total received" 	160
scalar scenarioPRJP1.node[6].app 	"Total deleted" 	189
scalar scenarioPRJP1.node[6].app 	dropPk:count 	189
attr interpolationmode  none
attr source  dropPk
attr title  "packets dropped, count"
scalar scenarioPRJP1.node[6].app 	dropPk:sum(packetBytes) 	96768
attr interpolationmode  none
attr source  dropPk
attr title  "packets dropped, sum(packetBytes)"
scalar scenarioPRJP1.node[6].app 	outOfOrderPk:count 	275
attr interpolationmode  none
attr source  outOfOrderPk
attr title  "packets received out of order, count"
scalar scenarioPRJP1.node[6].app 	outOfOrderPk:sum(packetBytes) 	140800
attr interpolationmode  none
attr source  outOfOrderPk
attr title  "packets received out of order, sum(packetBytes)"
scalar scenarioPRJP1.node[6].app 	rcvdPk:count 	160
attr interpolationmode  none
attr source  rcvdPk
attr title  "packets received, count"
scalar scenarioPRJP1.node[6].app 	rcvdPk:sum(packetBytes) 	81920
attr interpolationmode  none
attr source  rcvdPk
attr title  "packets received, sum(packetBytes)"
statistic scenarioPRJP1.node[6].app 	endToEndDelay:histogram
field count 160
field mean 2.6300439334723
field stddev 5.5249904991117
field sum 420.80702935556
field sqrsum 5960.2986571478
field min 0.00094502902
field max 19.665692358152
attr interpolationmode  none
attr source  messageAge(rcvdPk)
attr title  "delay, histogram"
attr unit  s
bin	-INF	0
bin	-9.027083868691	0
bin	-7.8233466823295	0
bin	-6.6196094959681	0
bin	-5.4158723096066	0
bin	-4.2121351232451	0
bin	-3.0083979368837	0
bin	-1.8046607505222	0
bin	-0.60092356416074	121
bin	0.60281362220073	3
bin	1.8065508085622	3
bin	3.0102879949237	3
bin	4.2140251812851	2
bin	5.4177623676466	3
bin	6.6214995540081	1
bin	7.8252367403695	1
bin	9.028973926731	0
bin	10.232711113092	4
bin	11.436448299454	1
bin	12.640185485815	1
bin	13.843922672177	5
bin	15.047659858538	1
bin	16.2513970449	5
bin	17.455134231261	4
bin	18.658871417623	2
bin	19.862608603984	0
bin	21.066345790346	0
bin	22.270082976707	0
bin	23.473820163069	0
bin	24.67755734943	0
bin	25.881294535792	0
bin	27.085031722153	0
scalar scenarioPRJP1.node[6].app 	sentPk:count 	2610
attr interpolationmode  none
attr source  sentPk
attr title  "packets sent, count"
scalar scenarioPRJP1.node[6].app 	sentPk:sum(packetBytes) 	1336320
attr interpolationmode  none
attr source  sentPk
attr title  "packets sent, sum(packetBytes)"
scalar scenarioPRJP1.node[6].udp 	droppedPkBadChecksum:count 	0
attr interpolationmode  none
attr title  "packets dropped (checksum error), count"
scalar scenarioPRJP1.node[6].udp 	droppedPkWrongPort:count 	0
attr interpolationmode  none
attr title  "packets dropped (wrong port), count"
scalar scenarioPRJP1.node[6].udp 	passedUpPk:count 	624
attr interpolationmode  none
attr title  "packets passed up, count"
scalar scenarioPRJP1.node[6].udp 	rcvdPk:count 	624
attr interpolationmode  none
attr source  rcvdPk
attr title  "packets received, count"
scalar scenarioPRJP1.node[6].udp 	rcvdPk:sum(packetBytes) 	324480
attr interpolationmode  none
attr source  rcvdPk
attr title  "packets received, sum(packetBytes)"
scalar scenarioPRJP1.node[6].udp 	sentPk:count 	2610
attr interpolationmode  none
attr source  sentPk
attr title  "packets sent, count"
scalar scenarioPRJP1.node[6].udp 	sentPk:sum(packetBytes) 	1357200
attr interpolationmode  none
attr source  sentPk
attr title  "packets sent, sum(packetBytes)"
scalar scenarioPRJP1.node[6].networkLayer.arp 	failedARPResolution:count 	0
attr title  "ARP failed resolutions, count"
scalar scenarioPRJP1.node[6].networkLayer.arp 	completedARPResolution:count 	18
attr title  "ARP completed resolutions, count"
scalar scenarioPRJP1.node[6].networkLayer.arp 	initiatedARPResolution:count 	11
attr title  "ARP initiated resolutions, count"
scalar scenarioPRJP1.node[6].networkLayer.arp 	sentReply:count 	5
attr title  "ARP replies sent, count"
scalar scenarioPRJP1.node[6].networkLayer.arp 	sentReq:count 	11
attr title  "ARP request sent, count"
scalar scenarioPRJP1.node[6].mobility 	startTime 	2.5
scalar scenarioPRJP1.node[6].mobility 	totalTime 	947.5
scalar scenarioPRJP1.node[6].mobility 	stopTime 	950
scalar scenarioPRJP1.node[6].mobility 	minSpeed 	2.4754587266149e-13
scalar scenarioPRJP1.node[6].mobility 	maxSpeed 	19.837077835846
scalar scenarioPRJP1.node[6].mobility 	totalDistance 	10066.2762076
scalar scenarioPRJP1.node[6].mobility 	totalCO2Emission 	2740.9148082682
scalar scenarioPRJP1.node[6].wlan[0].mgmt 	dataQueueLen:max 	100
attr interpolationmode  sample-hold
attr title  "data queue length, max"
scalar scenarioPRJP1.node[6].wlan[0].mgmt 	dataQueueLen:timeavg 	0.017260295801052
attr interpolationmode  sample-hold
attr title  "data queue length, timeavg"
scalar scenarioPRJP1.node[6].wlan[0].mgmt 	dropPkByQueue:count 	9
attr interpolationmode  none
attr source  dropPkByQueue
attr title  "packets dropped by queue, count"
scalar scenarioPRJP1.node[6].wlan[0].mgmt 	dropPkByQueue:sum(packetBytes) 	5184
attr interpolationmode  none
attr source  dropPkByQueue
attr title  "packets dropped by queue, sum(packetBytes)"
scalar scenarioPRJP1.node[6].wlan[0].mac 	"number of received packets" 	2392
scalar scenarioPRJP1.node[6].wlan[0].mac 	"number of collisions" 	16
scalar scenarioPRJP1.node[6].wlan[0].mac 	"number of internal collisions" 	0
scalar scenarioPRJP1.node[6].wlan[0].mac 	"number of retry for AC 0" 	1210
scalar scenarioPRJP1.node[6].wlan[0].mac 	"number of retry for AC 1" 	0
scalar scenarioPRJP1.node[6].wlan[0].mac 	"number of retry for AC 2" 	0
scalar scenarioPRJP1.node[6].wlan[0].mac 	"number of retry for AC 3" 	0
scalar scenarioPRJP1.node[6].wlan[0].mac 	"sent and received bits" 	2822752
scalar scenarioPRJP1.node[6].wlan[0].mac 	"sent packet within AC 0" 	421
scalar scenarioPRJP1.node[6].wlan[0].mac 	"sent packet within AC 1" 	0
scalar scenarioPRJP1.node[6].wlan[0].mac 	"sent packet within AC 2" 	0
scalar scenarioPRJP1.node[6].wlan[0].mac 	"sent packet within AC 3" 	0
scalar scenarioPRJP1.node[6].wlan[0].mac 	"sent in TXOP " 	0
scalar scenarioPRJP1.node[6].wlan[0].mac 	"sentWithoutRetry AC 0" 	416
scalar scenarioPRJP1.node[6].wlan[0].mac 	"sentWithoutRetry AC 1" 	0
scalar scenarioPRJP1.node[6].wlan[0].mac 	"sentWithoutRetry AC 2" 	0
scalar scenarioPRJP1.node[6].wlan[0].mac 	"sentWithoutRetry AC 3" 	0
scalar scenarioPRJP1.node[6].wlan[0].mac 	"numGivenUp AC 0" 	200
scalar scenarioPRJP1.node[6].wlan[0].mac 	"numGivenUp AC 1" 	0
scalar scenarioPRJP1.node[6].wlan[0].mac 	"numGivenUp AC 2" 	0
scalar scenarioPRJP1.node[6].wlan[0].mac 	"numGivenUp AC 3" 	0
scalar scenarioPRJP1.node[6].wlan[0].mac 	"numDropped AC 0" 	92
scalar scenarioPRJP1.node[6].wlan[0].mac 	"numDropped AC 1" 	0
scalar scenarioPRJP1.node[6].wlan[0].mac 	"numDropped AC 2" 	0
scalar scenarioPRJP1.node[6].wlan[0].mac 	"numDropped AC 3" 	0
scalar scenarioPRJP1.node[6].wlan[0].mac 	rcvdPkFromLL:count 	7450
attr interpolationmode  none
attr source  packetReceivedFromLower
attr title  "packets received from lower layer, count"
scalar scenarioPRJP1.node[6].wlan[0].mac 	rcvdPkFromLL:sum(packetBytes) 	2182968
attr interpolationmode  none
attr source  packetReceivedFromLower
attr title  "packets received from lower layer, sum(packetBytes)"
scalar scenarioPRJP1.node[6].wlan[0].mac 	sentDownPk:count 	5560
attr interpolationmode  none
attr source  packetSentToLower
attr title  "packets sent to lower layer, count"
scalar scenarioPRJP1.node[6].wlan[0].mac 	sentDownPk:sum(packetBytes) 	1149224
attr interpolationmode  none
attr source  packetSentToLower
attr title  "packets sent to lower layer, sum(packetBytes)"
scalar scenarioPRJP1.node[6].wlan[0].mac 	rcvdPkFromHL:count 	2050
attr interpolationmode  none
attr source  packetReceivedFromUpper
attr title  "packets received from higher layer, count"
scalar scenarioPRJP1.node[6].wlan[0].mac 	rcvdPkFromHL:sum(packetBytes) 	510628
attr interpolationmode  none
attr source  packetReceivedFromUpper
attr title  "packets received from higher layer, sum(packetBytes)"
scalar scenarioPRJP1.node[6].wlan[0].mac 	passedUpPk:count 	1981
attr interpolationmode  none
attr source  packetSentToUpper
attr title  "packets passed to higher layer, count"
scalar scenarioPRJP1.node[6].wlan[0].mac 	passedUpPk:sum(packetBytes) 	523172
attr interpolationmode  none
attr source  packetSentToUpper
attr title  "packets passed to higher layer, sum(packetBytes)"
statistic scenarioPRJP1.node[6].wlan[0].radio 	radioChannel:histogram
field count 1
field mean 3
field stddev -nan
field sum 3
field sqrsum 9
field min 3
field max 3
attr interpolationmode  sample-hold
attr source  radioChannelChanged
attr title  "Radio channel, histogram"
bin	-INF	0
bin	2	0
bin	3	1
bin	4	0
scalar scenarioPRJP1.node[6].wlan[0].radio 	transmissionState:count 	22240
attr interpolationmode  sample-hold
attr source  transmissionStateChanged
attr title  "Radio transmission state, count"
scalar scenarioPRJP1.node[6].wlan[0].radio 	receptionState:count 	26032
attr interpolationmode  sample-hold
attr source  receptionStateChanged
attr title  "Radio reception state, count"
scalar scenarioPRJP1.node[6].wlan[0].radio 	radioMode:count 	11122
attr interpolationmode  sample-hold
attr source  radioModeChanged
attr title  "Radio mode, count"
statistic scenarioPRJP1.node[6].wlan[0].radio 	symbolErrorRate:histogram
field count 0
field mean -nan
field stddev -nan
field sum 0
field sqrsum 0
field min -nan
field max -nan
attr source  symbolErrorRate
attr title  "Symbol error rate, histogram"
bin	-INF	0
bin	-0.5	0
bin	-0.46666666666667	0
bin	-0.43333333333333	0
bin	-0.4	0
bin	-0.36666666666667	0
bin	-0.33333333333333	0
bin	-0.3	0
bin	-0.26666666666667	0
bin	-0.23333333333333	0
bin	-0.2	0
bin	-0.16666666666667	0
bin	-0.13333333333333	0
bin	-0.1	0
bin	-0.066666666666667	0
bin	-0.033333333333333	0
bin	0	0
bin	0.033333333333333	0
bin	0.066666666666667	0
bin	0.1	0
bin	0.13333333333333	0
bin	0.16666666666667	0
bin	0.2	0
bin	0.23333333333333	0
bin	0.26666666666667	0
bin	0.3	0
bin	0.33333333333333	0
bin	0.36666666666667	0
bin	0.4	0
bin	0.43333333333333	0
bin	0.46666666666667	0
bin	0.5	0
statistic scenarioPRJP1.node[6].wlan[0].radio 	bitErrorRate:histogram
field count 0
field mean -nan
field stddev -nan
field sum 0
field sqrsum 0
field min -nan
field max -nan
attr source  bitErrorRate
attr title  "Bit error rate, histogram"
bin	-INF	0
bin	-0.5	0
bin	-0.46666666666667	0
bin	-0.43333333333333	0
bin	-0.4	0
bin	-0.36666666666667	0
bin	-0.33333333333333	0
bin	-0.3	0
bin	-0.26666666666667	0
bin	-0.23333333333333	0
bin	-0.2	0
bin	-0.16666666666667	0
bin	-0.13333333333333	0
bin	-0.1	0
bin	-0.066666666666667	0
bin	-0.033333333333333	0
bin	0	0
bin	0.033333333333333	0
bin	0.066666666666667	0
bin	0.1	0
bin	0.13333333333333	0
bin	0.16666666666667	0
bin	0.2	0
bin	0.23333333333333	0
bin	0.26666666666667	0
bin	0.3	0
bin	0.33333333333333	0
bin	0.36666666666667	0
bin	0.4	0
bin	0.43333333333333	0
bin	0.46666666666667	0
bin	0.5	0
statistic scenarioPRJP1.node[6].wlan[0].radio 	packetErrorRate:histogram
field count 7450
field mean 0.0022569743216568
field stddev 0.046843835569597
field sum 16.814458696343
field sqrsum 16.383625191571
field min 0
field max 1
attr source  packetErrorRate
attr title  "Packet error rate, histogram"
bin	-INF	0
bin	-0.5	0
bin	-0.46666666666667	0
bin	-0.43333333333333	0
bin	-0.4	0
bin	-0.36666666666667	0
bin	-0.33333333333333	0
bin	-0.3	0
bin	-0.26666666666667	0
bin	-0.23333333333333	0
bin	-0.2	0
bin	-0.16666666666667	0
bin	-0.13333333333333	0
bin	-0.1	0
bin	-0.066666666666667	0
bin	-0.033333333333333	0
bin	0	7431
bin	0.033333333333333	1
bin	0.066666666666667	0
bin	0.1	0
bin	0.13333333333333	1
bin	0.16666666666667	0
bin	0.2	0
bin	0.23333333333333	0
bin	0.26666666666667	0
bin	0.3	0
bin	0.33333333333333	0
bin	0.36666666666667	0
bin	0.4	0
bin	0.43333333333333	0
bin	0.46666666666667	0
bin	0.5	17
statistic scenarioPRJP1.node[6].wlan[0].radio 	minSNIR:histogram
field count 7450
field mean 18973.884977158
field stddev 88919.454544518
field sum 141355443.07983
field sqrsum 61578842252380
field min 0.00705775693443
field max 753239.71923443
attr source  minSNIR
attr title  "Min SNIR, histogram"
bin	-INF	0
bin	-5946.2027689631	0
bin	-5134.4807692845	0
bin	-4322.7587696059	0
bin	-3511.0367699273	0
bin	-2699.3147702487	0
bin	-1887.5927705701	0
bin	-1075.8707708915	0
bin	-264.14877121294	5543
bin	547.57322846565	397
bin	1359.2952281442	56
bin	2171.0172278228	124
bin	2982.7392275014	28
bin	3794.46122718	19
bin	4606.1832268586	21
bin	5417.9052265372	21
bin	6229.6272262158	14
bin	7041.3492258944	14
bin	7853.071225573	12
bin	8664.7932252516	13
bin	9476.5152249302	9
bin	10288.237224609	8
bin	11099.959224287	14
bin	11911.681223966	17
bin	12723.403223645	29
bin	13535.125223323	16
bin	14346.847223002	5
bin	15158.56922268	8
bin	15970.291222359	2
bin	16782.013222038	5
bin	17593.735221716	17
bin	18405.457221395	1058
scalar scenarioPRJP1.node[6].lo0.lo 	droppedPkBitError:count 	0
attr interpolationmode  none
attr source  dropPkBitError
attr title  "packets dropped/bit error, count"
scalar scenarioPRJP1.node[6].lo0.lo 	droppedPkBitError:sum(packetBytes) 	0
attr interpolationmode  none
attr source  dropPkBitError
attr title  "packets dropped/bit error, sum(packetBytes)"
scalar scenarioPRJP1.node[6].lo0.lo 	rcvdPkFromHL:count 	0
attr interpolationmode  none
attr source  packetReceivedFromUpper
attr title  "packets received from higher layer, count"
scalar scenarioPRJP1.node[6].lo0.lo 	rcvdPkFromHL:sum(packetBytes) 	0
attr interpolationmode  none
attr source  packetReceivedFromUpper
attr title  "packets received from higher layer, sum(packetBytes)"
scalar scenarioPRJP1.node[6].lo0.lo 	passedUpPk:count 	0
attr interpolationmode  none
attr source  packetSentToUpper
attr title  "packets passed to higher layer, count"
scalar scenarioPRJP1.node[6].lo0.lo 	passedUpPk:sum(packetBytes) 	0
attr interpolationmode  none
attr source  packetSentToUpper
attr title  "packets passed to higher layer, sum(packetBytes)"
scalar scenarioPRJP1.node[2].app 	"Total sent" 	2607
scalar scenarioPRJP1.node[2].app 	"Total received" 	203
scalar scenarioPRJP1.node[2].app 	"Total deleted" 	227
scalar scenarioPRJP1.node[2].app 	dropPk:count 	227
attr interpolationmode  none
attr source  dropPk
attr title  "packets dropped, count"
scalar scenarioPRJP1.node[2].app 	dropPk:sum(packetBytes) 	116224
attr interpolationmode  none
attr source  dropPk
attr title  "packets dropped, sum(packetBytes)"
scalar scenarioPRJP1.node[2].app 	outOfOrderPk:count 	446
attr interpolationmode  none
attr source  outOfOrderPk
attr title  "packets received out of order, count"
scalar scenarioPRJP1.node[2].app 	outOfOrderPk:sum(packetBytes) 	228352
attr interpolationmode  none
attr source  outOfOrderPk
attr title  "packets received out of order, sum(packetBytes)"
scalar scenarioPRJP1.node[2].app 	rcvdPk:count 	203
attr interpolationmode  none
attr source  rcvdPk
attr title  "packets received, count"
scalar scenarioPRJP1.node[2].app 	rcvdPk:sum(packetBytes) 	103936
attr interpolationmode  none
attr source  rcvdPk
attr title  "packets received, sum(packetBytes)"
statistic scenarioPRJP1.node[2].app 	endToEndDelay:histogram
field count 203
field mean 2.8214105643446
field stddev 5.3652065156358
field sum 572.74634456195
field sqrsum 7430.6116602319
field min 0.000945011007
field max 19.566290840524
attr interpolationmode  none
attr source  messageAge(rcvdPk)
attr title  "delay, histogram"
attr unit  s
bin	-INF	0
bin	-9.7817279037515	0
bin	-8.477371515117	0
bin	-7.1730151264826	0
bin	-5.8686587378481	0
bin	-4.5643023492136	0
bin	-3.2599459605792	0
bin	-1.9555895719447	0
bin	-0.65123318331023	147
bin	0.65312320532423	4
bin	1.9574795939587	1
bin	3.2618359825932	6
bin	4.5661923712276	3
bin	5.8705487598621	6
bin	7.1749051484966	1
bin	8.479261537131	6
bin	9.7836179257655	4
bin	11.0879743144	6
bin	12.392330703034	2
bin	13.696687091669	5
bin	15.001043480303	2
bin	16.305399868938	4
bin	17.609756257572	3
bin	18.914112646207	3
bin	20.218469034841	0
bin	21.522825423476	0
bin	22.82718181211	0
bin	24.131538200745	0
bin	25.435894589379	0
bin	26.740250978014	0
bin	28.044607366648	0
bin	29.348963755283	0
scalar scenarioPRJP1.node[2].app 	sentPk:count 	2607
attr interpolationmode  none
attr source  sentPk
attr title  "packets sent, count"
scalar scenarioPRJP1.node[2].app 	sentPk:sum(packetBytes) 	1334784
attr interpolationmode  none
attr source  sentPk
attr title  "packets sent, sum(packetBytes)"
scalar scenarioPRJP1.node[2].udp 	droppedPkBadChecksum:count 	0
attr interpolationmode  none
attr title  "packets dropped (checksum error), count"
scalar scenarioPRJP1.node[2].udp 	droppedPkWrongPort:count 	0
attr interpolationmode  none
attr title  "packets dropped (wrong port), count"
scalar scenarioPRJP1.node[2].udp 	passedUpPk:count 	876
attr interpolationmode  none
attr title  "packets passed up, count"
scalar scenarioPRJP1.node[2].udp 	rcvdPk:count 	876
attr interpolationmode  none
attr source  rcvdPk
attr title  "packets received, count"
scalar scenarioPRJP1.node[2].udp 	rcvdPk:sum(packetBytes) 	455520
attr interpolationmode  none
attr source  rcvdPk
attr title  "packets received, sum(packetBytes)"
scalar scenarioPRJP1.node[2].udp 	sentPk:count 	2607
attr interpolationmode  none
attr source  sentPk
attr title  "packets sent, count"
scalar scenarioPRJP1.node[2].udp 	sentPk:sum(packetBytes) 	1355640
attr interpolationmode  none
attr source  sentPk
attr title  "packets sent, sum(packetBytes)"
scalar scenarioPRJP1.node[2].networkLayer.arp 	failedARPResolution:count 	0
attr title  "ARP failed resolutions, count"
scalar scenarioPRJP1.node[2].networkLayer.arp 	completedARPResolution:count 	24
attr title  "ARP completed resolutions, count"
scalar scenarioPRJP1.node[2].networkLayer.arp 	initiatedARPResolution:count 	9
attr title  "ARP initiated resolutions, count"
scalar scenarioPRJP1.node[2].networkLayer.arp 	sentReply:count 	9
attr title  "ARP replies sent, count"
scalar scenarioPRJP1.node[2].networkLayer.arp 	sentReq:count 	9
attr title  "ARP request sent, count"
scalar scenarioPRJP1.node[2].mobility 	startTime 	0.1
scalar scenarioPRJP1.node[2].mobility 	totalTime 	949.9
scalar scenarioPRJP1.node[2].mobility 	stopTime 	950
scalar scenarioPRJP1.node[2].mobility 	minSpeed 	2.4755473105746e-13
scalar scenarioPRJP1.node[2].mobility 	maxSpeed 	18.752043738571
scalar scenarioPRJP1.node[2].mobility 	totalDistance 	9298.6818595963
scalar scenarioPRJP1.node[2].mobility 	totalCO2Emission 	2637.2422455597
scalar scenarioPRJP1.node[2].wlan[0].mgmt 	dataQueueLen:max 	100
attr interpolationmode  sample-hold
attr title  "data queue length, max"
scalar scenarioPRJP1.node[2].wlan[0].mgmt 	dataQueueLen:timeavg 	0.027208779962529
attr interpolationmode  sample-hold
attr title  "data queue length, timeavg"
scalar scenarioPRJP1.node[2].wlan[0].mgmt 	dropPkByQueue:count 	49
attr interpolationmode  none
attr source  dropPkByQueue
attr title  "packets dropped by queue, count"
scalar scenarioPRJP1.node[2].wlan[0].mgmt 	dropPkByQueue:sum(packetBytes) 	28224
attr interpolationmode  none
attr source  dropPkByQueue
attr title  "packets dropped by queue, sum(packetBytes)"
scalar scenarioPRJP1.node[2].wlan[0].mac 	"number of received packets" 	3092
scalar scenarioPRJP1.node[2].wlan[0].mac 	"number of collisions" 	19
scalar scenarioPRJP1.node[2].wlan[0].mac 	"number of internal collisions" 	0
scalar scenarioPRJP1.node[2].wlan[0].mac 	"number of retry for AC 0" 	1986
scalar scenarioPRJP1.node[2].wlan[0].mac 	"number of retry for AC 1" 	0
scalar scenarioPRJP1.node[2].wlan[0].mac 	"number of retry for AC 2" 	0
scalar scenarioPRJP1.node[2].wlan[0].mac 	"number of retry for AC 3" 	0
scalar scenarioPRJP1.node[2].wlan[0].mac 	"sent and received bits" 	2371584
scalar scenarioPRJP1.node[2].wlan[0].mac 	"sent packet within AC 0" 	308
scalar scenarioPRJP1.node[2].wlan[0].mac 	"sent packet within AC 1" 	0
scalar scenarioPRJP1.node[2].wlan[0].mac 	"sent packet within AC 2" 	0
scalar scenarioPRJP1.node[2].wlan[0].mac 	"sent packet within AC 3" 	0
scalar scenarioPRJP1.node[2].wlan[0].mac 	"sent in TXOP " 	0
scalar scenarioPRJP1.node[2].wlan[0].mac 	"sentWithoutRetry AC 0" 	292
scalar scenarioPRJP1.node[2].wlan[0].mac 	"sentWithoutRetry AC 1" 	0
scalar scenarioPRJP1.node[2].wlan[0].mac 	"sentWithoutRetry AC 2" 	0
scalar scenarioPRJP1.node[2].wlan[0].mac 	"sentWithoutRetry AC 3" 	0
scalar scenarioPRJP1.node[2].wlan[0].mac 	"numGivenUp AC 0" 	328
scalar scenarioPRJP1.node[2].wlan[0].mac 	"numGivenUp AC 1" 	0
scalar scenarioPRJP1.node[2].wlan[0].mac 	"numGivenUp AC 2" 	0
scalar scenarioPRJP1.node[2].wlan[0].mac 	"numGivenUp AC 3" 	0
scalar scenarioPRJP1.node[2].wlan[0].mac 	"numDropped AC 0" 	126
scalar scenarioPRJP1.node[2].wlan[0].mac 	"numDropped AC 1" 	0
scalar scenarioPRJP1.node[2].wlan[0].mac 	"numDropped AC 2" 	0
scalar scenarioPRJP1.node[2].wlan[0].mac 	"numDropped AC 3" 	0
scalar scenarioPRJP1.node[2].wlan[0].mac 	rcvdPkFromLL:count 	9700
attr interpolationmode  none
attr source  packetReceivedFromLower
attr title  "packets received from lower layer, count"
scalar scenarioPRJP1.node[2].wlan[0].mac 	rcvdPkFromLL:sum(packetBytes) 	2501610
attr interpolationmode  none
attr source  packetReceivedFromLower
attr title  "packets received from lower layer, sum(packetBytes)"
scalar scenarioPRJP1.node[2].wlan[0].mac 	sentDownPk:count 	7199
attr interpolationmode  none
attr source  packetSentToLower
attr title  "packets sent to lower layer, count"
scalar scenarioPRJP1.node[2].wlan[0].mac 	sentDownPk:sum(packetBytes) 	1605832
attr interpolationmode  none
attr source  packetSentToLower
attr title  "packets sent to lower layer, sum(packetBytes)"
scalar scenarioPRJP1.node[2].wlan[0].mac 	rcvdPkFromHL:count 	2247
attr interpolationmode  none
attr source  packetReceivedFromUpper
attr title  "packets received from higher layer, count"
scalar scenarioPRJP1.node[2].wlan[0].mac 	rcvdPkFromHL:sum(packetBytes) 	539140
attr interpolationmode  none
attr source  packetReceivedFromUpper
attr title  "packets received from higher layer, sum(packetBytes)"
scalar scenarioPRJP1.node[2].wlan[0].mac 	passedUpPk:count 	2318
attr interpolationmode  none
attr source  packetSentToUpper
attr title  "packets passed to higher layer, count"
scalar scenarioPRJP1.node[2].wlan[0].mac 	passedUpPk:sum(packetBytes) 	665888
attr interpolationmode  none
attr source  packetSentToUpper
attr title  "packets passed to higher layer, sum(packetBytes)"
statistic scenarioPRJP1.node[2].wlan[0].radio 	radioChannel:histogram
field count 1
field mean 3
field stddev -nan
field sum 3
field sqrsum 9
field min 3
field max 3
attr interpolationmode  sample-hold
attr source  radioChannelChanged
attr title  "Radio channel, histogram"
bin	-INF	0
bin	2	0
bin	3	1
bin	4	0
scalar scenarioPRJP1.node[2].wlan[0].radio 	transmissionState:count 	28796
attr interpolationmode  sample-hold
attr source  transmissionStateChanged
attr title  "Radio transmission state, count"
scalar scenarioPRJP1.node[2].wlan[0].radio 	receptionState:count 	33827
attr interpolationmode  sample-hold
attr source  receptionStateChanged
attr title  "Radio reception state, count"
scalar scenarioPRJP1.node[2].wlan[0].radio 	radioMode:count 	14400
attr interpolationmode  sample-hold
attr source  radioModeChanged
attr title  "Radio mode, count"
statistic scenarioPRJP1.node[2].wlan[0].radio 	symbolErrorRate:histogram
field count 0
field mean -nan
field stddev -nan
field sum 0
field sqrsum 0
field min -nan
field max -nan
attr source  symbolErrorRate
attr title  "Symbol error rate, histogram"
bin	-INF	0
bin	-0.5	0
bin	-0.46666666666667	0
bin	-0.43333333333333	0
bin	-0.4	0
bin	-0.36666666666667	0
bin	-0.33333333333333	0
bin	-0.3	0
bin	-0.26666666666667	0
bin	-0.23333333333333	0
bin	-0.2	0
bin	-0.16666666666667	0
bin	-0.13333333333333	0
bin	-0.1	0
bin	-0.066666666666667	0
bin	-0.033333333333333	0
bin	0	0
bin	0.033333333333333	0
bin	0.066666666666667	0
bin	0.1	0
bin	0.13333333333333	0
bin	0.16666666666667	0
bin	0.2	0
bin	0.23333333333333	0
bin	0.26666666666667	0
bin	0.3	0
bin	0.33333333333333	0
bin	0.36666666666667	0
bin	0.4	0
bin	0.43333333333333	0
bin	0.46666666666667	0
bin	0.5	0
statistic scenarioPRJP1.node[2].wlan[0].radio 	bitErrorRate:histogram
field count 0
field mean -nan
field stddev -nan
field sum 0
field sqrsum 0
field min -nan
field max -nan
attr source  bitErrorRate
attr title  "Bit error rate, histogram"
bin	-INF	0
bin	-0.5	0
bin	-0.46666666666667	0
bin	-0.43333333333333	0
bin	-0.4	0
bin	-0.36666666666667	0
bin	-0.33333333333333	0
bin	-0.3	0
bin	-0.26666666666667	0
bin	-0.23333333333333	0
bin	-0.2	0
bin	-0.16666666666667	0
bin	-0.13333333333333	0
bin	-0.1	0
bin	-0.066666666666667	0
bin	-0.033333333333333	0
bin	0	0
bin	0.033333333333333	0
bin	0.066666666666667	0
bin	0.1	0
bin	0.13333333333333	0
bin	0.16666666666667	0
bin	0.2	0
bin	0.23333333333333	0
bin	0.26666666666667	0
bin	0.3	0
bin	0.33333333333333	0
bin	0.36666666666667	0
bin	0.4	0
bin	0.43333333333333	0
bin	0.46666666666667	0
bin	0.5	0
statistic scenarioPRJP1.node[2].wlan[0].radio 	packetErrorRate:histogram
field count 9700
field mean 0.0019220638045317
field stddev 0.042806808083686
field sum 18.644018903958
field sqrsum 17.808503908729
field min 0
field max 1
attr source  packetErrorRate
attr title  "Packet error rate, histogram"
bin	-INF	0
bin	-0.5	0
bin	-0.46666666666667	0
bin	-0.43333333333333	0
bin	-0.4	0
bin	-0.36666666666667	0
bin	-0.33333333333333	0
bin	-0.3	0
bin	-0.26666666666667	0
bin	-0.23333333333333	0
bin	-0.2	0
bin	-0.16666666666667	0
bin	-0.13333333333333	0
bin	-0.1	0
bin	-0.066666666666667	0
bin	-0.033333333333333	0
bin	0	9680
bin	0.033333333333333	0
bin	0.066666666666667	0
bin	0.1	0
bin	0.13333333333333	0
bin	0.16666666666667	0
bin	0.2	0
bin	0.23333333333333	0
bin	0.26666666666667	0
bin	0.3	1
bin	0.33333333333333	0
bin	0.36666666666667	0
bin	0.4	0
bin	0.43333333333333	0
bin	0.46666666666667	0
bin	0.5	19
statistic scenarioPRJP1.node[2].wlan[0].radio 	minSNIR:histogram
field count 9700
field mean 23317.501661353
field stddev 114095.35294344
field sum 226179766.11512
field sqrsum 1.3153310008649e+14
field min 0.00037536857954404
field max 1268434.0675453
attr source  minSNIR
attr title  "Min SNIR, histogram"
bin	-INF	0
bin	-2981.1787617788	0
bin	-2562.8264513723	0
bin	-2144.4741409658	0
bin	-1726.1218305594	0
bin	-1307.7695201529	0
bin	-889.41720974642	0
bin	-471.06489933995	0
bin	-52.712588933485	6407
bin	365.63972147298	839
bin	783.99203187945	250
bin	1202.3443422859	120
bin	1620.6966526924	61
bin	2039.0489630988	16
bin	2457.4012735053	35
bin	2875.7535839118	24
bin	3294.1058943182	21
bin	3712.4582047247	31
bin	4130.8105151312	341
bin	4549.1628255377	21
bin	4967.5151359441	56
bin	5385.8674463506	24
bin	5804.2197567571	10
bin	6222.5720671635	46
bin	6640.92437757	7
bin	7059.2766879765	8
bin	7477.6289983829	12
bin	7895.9813087894	1
bin	8314.3336191959	6
bin	8732.6859296023	0
bin	9151.0382400088	3
bin	9569.3905504153	1361
scalar scenarioPRJP1.node[2].lo0.lo 	droppedPkBitError:count 	0
attr interpolationmode  none
attr source  dropPkBitError
attr title  "packets dropped/bit error, count"
scalar scenarioPRJP1.node[2].lo0.lo 	droppedPkBitError:sum(packetBytes) 	0
attr interpolationmode  none
attr source  dropPkBitError
attr title  "packets dropped/bit error, sum(packetBytes)"
scalar scenarioPRJP1.node[2].lo0.lo 	rcvdPkFromHL:count 	0
attr interpolationmode  none
attr source  packetReceivedFromUpper
attr title  "packets received from higher layer, count"
scalar scenarioPRJP1.node[2].lo0.lo 	rcvdPkFromHL:sum(packetBytes) 	0
attr interpolationmode  none
attr source  packetReceivedFromUpper
attr title  "packets received from higher layer, sum(packetBytes)"
scalar scenarioPRJP1.node[2].lo0.lo 	passedUpPk:count 	0
attr interpolationmode  none
attr source  packetSentToUpper
attr title  "packets passed to higher layer, count"
scalar scenarioPRJP1.node[2].lo0.lo 	passedUpPk:sum(packetBytes) 	0
attr interpolationmode  none
attr source  packetSentToUpper
attr title  "packets passed to higher layer, sum(packetBytes)"
scalar scenarioPRJP1.node[7].app 	"Total sent" 	2618
scalar scenarioPRJP1.node[7].app 	"Total received" 	103
scalar scenarioPRJP1.node[7].app 	"Total deleted" 	211
scalar scenarioPRJP1.node[7].app 	dropPk:count 	211
attr interpolationmode  none
attr source  dropPk
attr title  "packets dropped, count"
scalar scenarioPRJP1.node[7].app 	dropPk:sum(packetBytes) 	108032
attr interpolationmode  none
attr source  dropPk
attr title  "packets dropped, sum(packetBytes)"
scalar scenarioPRJP1.node[7].app 	outOfOrderPk:count 	207
attr interpolationmode  none
attr source  outOfOrderPk
attr title  "packets received out of order, count"
scalar scenarioPRJP1.node[7].app 	outOfOrderPk:sum(packetBytes) 	105984
attr interpolationmode  none
attr source  outOfOrderPk
attr title  "packets received out of order, sum(packetBytes)"
scalar scenarioPRJP1.node[7].app 	rcvdPk:count 	103
attr interpolationmode  none
attr source  rcvdPk
attr title  "packets received, count"
scalar scenarioPRJP1.node[7].app 	rcvdPk:sum(packetBytes) 	52736
attr interpolationmode  none
attr source  rcvdPk
attr title  "packets received, sum(packetBytes)"
statistic scenarioPRJP1.node[7].app 	endToEndDelay:histogram
field count 103
field mean 4.593297481825
field stddev 6.1577213005234
field sum 473.10964062798
field sqrsum 6040.7215456455
field min 0.000945530214
field max 19.853490918567
attr interpolationmode  none
attr source  messageAge(rcvdPk)
attr title  "delay, histogram"
attr unit  s
bin	-INF	0
bin	-9.9253271639625	0
bin	-8.6018241380723	0
bin	-7.2783211121821	0
bin	-5.9548180862919	0
bin	-4.6313150604017	0
bin	-3.3078120345115	0
bin	-1.9843090086213	0
bin	-0.6608059827311	48
bin	0.6626970431591	7
bin	1.9862000690493	5
bin	3.3097030949395	7
bin	4.6332061208297	7
bin	5.9567091467199	2
bin	7.2802121726101	2
bin	8.6037151985003	3
bin	9.9272182243905	4
bin	11.250721250281	2
bin	12.574224276171	2
bin	13.897727302061	4
bin	15.221230327951	2
bin	16.544733353842	2
bin	17.868236379732	3
bin	19.191739405622	3
bin	20.515242431512	0
bin	21.838745457402	0
bin	23.162248483293	0
bin	24.485751509183	0
bin	25.809254535073	0
bin	27.132757560963	0
bin	28.456260586853	0
bin	29.779763612744	0
scalar scenarioPRJP1.node[7].app 	sentPk:count 	2618
attr interpolationmode  none
attr source  sentPk
attr title  "packets sent, count"
scalar scenarioPRJP1.node[7].app 	sentPk:sum(packetBytes) 	1340416
attr interpolationmode  none
attr source  sentPk
attr title  "packets sent, sum(packetBytes)"
scalar scenarioPRJP1.node[7].udp 	droppedPkBadChecksum:count 	0
attr interpolationmode  none
attr title  "packets dropped (checksum error), count"
scalar scenarioPRJP1.node[7].udp 	droppedPkWrongPort:count 	0
attr interpolationmode  none
attr title  "packets dropped (wrong port), count"
scalar scenarioPRJP1.node[7].udp 	passedUpPk:count 	521
attr interpolationmode  none
attr title  "packets passed up, count"
scalar scenarioPRJP1.node[7].udp 	rcvdPk:count 	521
attr interpolationmode  none
attr source  rcvdPk
attr title  "packets received, count"
scalar scenarioPRJP1.node[7].udp 	rcvdPk:sum(packetBytes) 	270920
attr interpolationmode  none
attr source  rcvdPk
attr title  "packets received, sum(packetBytes)"
scalar scenarioPRJP1.node[7].udp 	sentPk:count 	2618
attr interpolationmode  none
attr source  sentPk
attr title  "packets sent, count"
scalar scenarioPRJP1.node[7].udp 	sentPk:sum(packetBytes) 	1361360
attr interpolationmode  none
attr source  sentPk
attr title  "packets sent, sum(packetBytes)"
scalar scenarioPRJP1.node[7].networkLayer.arp 	failedARPResolution:count 	0
attr title  "ARP failed resolutions, count"
scalar scenarioPRJP1.node[7].networkLayer.arp 	completedARPResolution:count 	18
attr title  "ARP completed resolutions, count"
scalar scenarioPRJP1.node[7].networkLayer.arp 	initiatedARPResolution:count 	2
attr title  "ARP initiated resolutions, count"
scalar scenarioPRJP1.node[7].networkLayer.arp 	sentReply:count 	12
attr title  "ARP replies sent, count"
scalar scenarioPRJP1.node[7].networkLayer.arp 	sentReq:count 	2
attr title  "ARP request sent, count"
scalar scenarioPRJP1.node[7].mobility 	startTime 	2.5
scalar scenarioPRJP1.node[7].mobility 	totalTime 	947.5
scalar scenarioPRJP1.node[7].mobility 	stopTime 	950
scalar scenarioPRJP1.node[7].mobility 	minSpeed 	2.4755332339125e-13
scalar scenarioPRJP1.node[7].mobility 	maxSpeed 	19.783397143738
scalar scenarioPRJP1.node[7].mobility 	totalDistance 	10390.7481831
scalar scenarioPRJP1.node[7].mobility 	totalCO2Emission 	2836.6260010073
scalar scenarioPRJP1.node[7].wlan[0].mgmt 	dataQueueLen:max 	69
attr interpolationmode  sample-hold
attr title  "data queue length, max"
scalar scenarioPRJP1.node[7].wlan[0].mgmt 	dataQueueLen:timeavg 	0.0066793803158723
attr interpolationmode  sample-hold
attr title  "data queue length, timeavg"
scalar scenarioPRJP1.node[7].wlan[0].mgmt 	dropPkByQueue:count 	0
attr interpolationmode  none
attr source  dropPkByQueue
attr title  "packets dropped by queue, count"
scalar scenarioPRJP1.node[7].wlan[0].mgmt 	dropPkByQueue:sum(packetBytes) 	0
attr interpolationmode  none
attr source  dropPkByQueue
attr title  "packets dropped by queue, sum(packetBytes)"
scalar scenarioPRJP1.node[7].wlan[0].mac 	"number of received packets" 	2017
scalar scenarioPRJP1.node[7].wlan[0].mac 	"number of collisions" 	209
scalar scenarioPRJP1.node[7].wlan[0].mac 	"number of internal collisions" 	0
scalar scenarioPRJP1.node[7].wlan[0].mac 	"number of retry for AC 0" 	2012
scalar scenarioPRJP1.node[7].wlan[0].mac 	"number of retry for AC 1" 	0
scalar scenarioPRJP1.node[7].wlan[0].mac 	"number of retry for AC 2" 	0
scalar scenarioPRJP1.node[7].wlan[0].mac 	"number of retry for AC 3" 	0
scalar scenarioPRJP1.node[7].wlan[0].mac 	"sent and received bits" 	1897632
scalar scenarioPRJP1.node[7].wlan[0].mac 	"sent packet within AC 0" 	223
scalar scenarioPRJP1.node[7].wlan[0].mac 	"sent packet within AC 1" 	0
scalar scenarioPRJP1.node[7].wlan[0].mac 	"sent packet within AC 2" 	0
scalar scenarioPRJP1.node[7].wlan[0].mac 	"sent packet within AC 3" 	0
scalar scenarioPRJP1.node[7].wlan[0].mac 	"sent in TXOP " 	0
scalar scenarioPRJP1.node[7].wlan[0].mac 	"sentWithoutRetry AC 0" 	220
scalar scenarioPRJP1.node[7].wlan[0].mac 	"sentWithoutRetry AC 1" 	0
scalar scenarioPRJP1.node[7].wlan[0].mac 	"sentWithoutRetry AC 2" 	0
scalar scenarioPRJP1.node[7].wlan[0].mac 	"sentWithoutRetry AC 3" 	0
scalar scenarioPRJP1.node[7].wlan[0].mac 	"numGivenUp AC 0" 	334
scalar scenarioPRJP1.node[7].wlan[0].mac 	"numGivenUp AC 1" 	0
scalar scenarioPRJP1.node[7].wlan[0].mac 	"numGivenUp AC 2" 	0
scalar scenarioPRJP1.node[7].wlan[0].mac 	"numGivenUp AC 3" 	0
scalar scenarioPRJP1.node[7].wlan[0].mac 	"numDropped AC 0" 	46
scalar scenarioPRJP1.node[7].wlan[0].mac 	"numDropped AC 1" 	0
scalar scenarioPRJP1.node[7].wlan[0].mac 	"numDropped AC 2" 	0
scalar scenarioPRJP1.node[7].wlan[0].mac 	"numDropped AC 3" 	0
scalar scenarioPRJP1.node[7].wlan[0].mac 	rcvdPkFromLL:count 	7388
attr interpolationmode  none
attr source  packetReceivedFromLower
attr title  "packets received from lower layer, count"
scalar scenarioPRJP1.node[7].wlan[0].mac 	rcvdPkFromLL:sum(packetBytes) 	1800768
attr interpolationmode  none
attr source  packetReceivedFromLower
attr title  "packets received from lower layer, sum(packetBytes)"
scalar scenarioPRJP1.node[7].wlan[0].mac 	sentDownPk:count 	5882
attr interpolationmode  none
attr source  packetSentToLower
attr title  "packets sent to lower layer, count"
scalar scenarioPRJP1.node[7].wlan[0].mac 	sentDownPk:sum(packetBytes) 	1553486
attr interpolationmode  none
attr source  packetSentToLower
attr title  "packets sent to lower layer, sum(packetBytes)"
scalar scenarioPRJP1.node[7].wlan[0].mac 	rcvdPkFromHL:count 	1899
attr interpolationmode  none
attr source  packetReceivedFromUpper
attr title  "packets received from higher layer, count"
scalar scenarioPRJP1.node[7].wlan[0].mac 	rcvdPkFromHL:sum(packetBytes) 	440652
attr interpolationmode  none
attr source  packetReceivedFromUpper
attr title  "packets received from higher layer, sum(packetBytes)"
scalar scenarioPRJP1.node[7].wlan[0].mac 	passedUpPk:count 	1667
attr interpolationmode  none
attr source  packetSentToUpper
attr title  "packets passed to higher layer, count"
scalar scenarioPRJP1.node[7].wlan[0].mac 	passedUpPk:sum(packetBytes) 	400148
[...]
scalar scenarioPRJP1.node[4].wlan[0].mac 	passedUpPk:count 	1564
attr interpolationmode  none
attr source  packetSentToUpper
attr title  "packets passed to higher layer, count"
scalar scenarioPRJP1.node[4].wlan[0].mac 	passedUpPk:sum(packetBytes) 	392544
attr interpolationmode  none
attr source  packetSentToUpper
attr title  "packets passed to higher layer, sum(packetBytes)"
statistic scenarioPRJP1.node[4].wlan[0].radio 	radioChannel:histogram
field count 1
field mean 3
field stddev -nan
field sum 3
field sqrsum 9
field min 3
field max 3
attr interpolationmode  sample-hold
attr source  radioChannelChanged
attr title  "Radio channel, histogram"
bin	-INF	0
bin	2	0
bin	3	1
bin	4	0
scalar scenarioPRJP1.node[4].wlan[0].radio 	transmissionState:count 	19964
attr interpolationmode  sample-hold
attr source  transmissionStateChanged
attr title  "Radio transmission state, count"
scalar scenarioPRJP1.node[4].wlan[0].radio 	receptionState:count 	22919
attr interpolationmode  sample-hold
attr source  receptionStateChanged
attr title  "Radio reception state, count"
scalar scenarioPRJP1.node[4].wlan[0].radio 	radioMode:count 	9984
attr interpolationmode  sample-hold
attr source  radioModeChanged
attr title  "Radio mode, count"
statistic scenarioPRJP1.node[4].wlan[0].radio 	symbolErrorRate:histogram
field count 0
field mean -nan
field stddev -nan
field sum 0
field sqrsum 0
field min -nan
field max -nan
attr source  symbolErrorRate
attr title  "Symbol error rate, histogram"
bin	-INF	0
bin	-0.5	0
bin	-0.46666666666667	0
bin	-0.43333333333333	0
bin	-0.4	0
bin	-0.36666666666667	0
bin	-0.33333333333333	0
bin	-0.3	0
bin	-0.26666666666667	0
bin	-0.23333333333333	0
bin	-0.2	0
bin	-0.16666666666667	0
bin	-0.13333333333333	0
bin	-0.1	0
bin	-0.066666666666667	0
bin	-0.033333333333333	0
bin	0	0
bin	0.033333333333333	0
bin	0.066666666666667	0
bin	0.1	0
bin	0.13333333333333	0
bin	0.16666666666667	0
bin	0.2	0
bin	0.23333333333333	0
bin	0.26666666666667	0
bin	0.3	0
bin	0.33333333333333	0
bin	0.36666666666667	0
bin	0.4	0
bin	0.43333333333333	0
bin	0.46666666666667	0
bin	0.5	0
statistic scenarioPRJP1.node[4].wlan[0].radio 	bitErrorRate:histogram
field count 0
field mean -nan
field stddev -nan
field sum 0
field sqrsum 0
field min -nan
field max -nan
attr source  bitErrorRate
attr title  "Bit error rate, histogram"
bin	-INF	0
bin	-0.5	0
bin	-0.46666666666667	0
bin	-0.43333333333333	0
bin	-0.4	0
bin	-0.36666666666667	0
bin	-0.33333333333333	0
bin	-0.3	0
bin	-0.26666666666667	0
bin	-0.23333333333333	0
bin	-0.2	0
bin	-0.16666666666667	0
bin	-0.13333333333333	0
bin	-0.1	0
bin	-0.066666666666667	0
bin	-0.033333333333333	0
bin	0	0
bin	0.033333333333333	0
bin	0.066666666666667	0
bin	0.1	0
bin	0.13333333333333	0
bin	0.16666666666667	0
bin	0.2	0
bin	0.23333333333333	0
bin	0.26666666666667	0
bin	0.3	0
bin	0.33333333333333	0
bin	0.36666666666667	0
bin	0.4	0
bin	0.43333333333333	0
bin	0.46666666666667	0
bin	0.5	0
statistic scenarioPRJP1.node[4].wlan[0].radio 	packetErrorRate:histogram
field count 6453
field mean 0.0044940796532127
field stddev 0.051786840444263
field sum 29.000296002182
field sqrsum 17.433799032524
field min 0
field max 1
attr source  packetErrorRate
attr title  "Packet error rate, histogram"
bin	-INF	0
bin	-0.5	0
bin	-0.46666666666667	0
bin	-0.43333333333333	0
bin	-0.4	0
bin	-0.36666666666667	0
bin	-0.33333333333333	0
bin	-0.3	0
bin	-0.26666666666667	0
bin	-0.23333333333333	0
bin	-0.2	0
bin	-0.16666666666667	0
bin	-0.13333333333333	0
bin	-0.1	0
bin	-0.066666666666667	0
bin	-0.033333333333333	0
bin	0	6342
bin	0.033333333333333	27
bin	0.066666666666667	22
bin	0.1	0
bin	0.13333333333333	18
bin	0.16666666666667	0
bin	0.2	15
bin	0.23333333333333	0
bin	0.26666666666667	13
bin	0.3	0
bin	0.33333333333333	0
bin	0.36666666666667	0
bin	0.4	0
bin	0.43333333333333	0
bin	0.46666666666667	0
bin	0.5	16
statistic scenarioPRJP1.node[4].wlan[0].radio 	minSNIR:histogram
field count 6453
field mean 19982.84043812
field stddev 105505.17639807
field sum 128949269.34719
field sqrsum 74396192850251
field min 0.22958098480383
field max 753239.71923443
attr source  minSNIR
attr title  "Min SNIR, histogram"
bin	-INF	0
bin	-4873.8805972923	0
bin	-4213.1170682261	0
bin	-3552.3535391599	0
bin	-2891.5900100937	0
bin	-2230.8264810275	0
bin	-1570.0629519613	0
bin	-909.29942289513	0
bin	-248.53589382894	4180
bin	412.22763523725	281
bin	1072.9911643034	436
bin	1733.7546933696	88
bin	2394.5182224358	91
bin	3055.281751502	52
bin	3716.0452805682	52
bin	4376.8088096344	94
bin	5037.5723387006	94
bin	5698.3358677668	53
bin	6359.0993968329	54
bin	7019.8629258991	49
bin	7680.6264549653	10
bin	8341.3899840315	6
bin	9002.1535130977	30
bin	9662.9170421639	9
bin	10323.68057123	5
bin	10984.444100296	47
bin	11645.207629362	45
bin	12305.971158429	13
bin	12966.734687495	22
bin	13627.498216561	15
bin	14288.261745627	5
bin	14949.025274693	722
scalar scenarioPRJP1.node[4].lo0.lo 	droppedPkBitError:count 	0
attr interpolationmode  none
attr source  dropPkBitError
attr title  "packets dropped/bit error, count"
scalar scenarioPRJP1.node[4].lo0.lo 	droppedPkBitError:sum(packetBytes) 	0
attr interpolationmode  none
attr source  dropPkBitError
attr title  "packets dropped/bit error, sum(packetBytes)"
scalar scenarioPRJP1.node[4].lo0.lo 	rcvdPkFromHL:count 	0
attr interpolationmode  none
attr source  packetReceivedFromUpper
attr title  "packets received from higher layer, count"
scalar scenarioPRJP1.node[4].lo0.lo 	rcvdPkFromHL:sum(packetBytes) 	0
attr interpolationmode  none
attr source  packetReceivedFromUpper
attr title  "packets received from higher layer, sum(packetBytes)"
scalar scenarioPRJP1.node[4].lo0.lo 	passedUpPk:count 	0
attr interpolationmode  none
attr source  packetSentToUpper
attr title  "packets passed to higher layer, count"
scalar scenarioPRJP1.node[4].lo0.lo 	passedUpPk:sum(packetBytes) 	0
attr interpolationmode  none
attr source  packetSentToUpper
attr title  "packets passed to higher layer, sum(packetBytes)"
scalar scenarioPRJP1.node[9].app 	"Total sent" 	2609
scalar scenarioPRJP1.node[9].app 	"Total received" 	91
scalar scenarioPRJP1.node[9].app 	"Total deleted" 	37
scalar scenarioPRJP1.node[9].app 	dropPk:count 	37
attr interpolationmode  none
attr source  dropPk
attr title  "packets dropped, count"
scalar scenarioPRJP1.node[9].app 	dropPk:sum(packetBytes) 	18944
attr interpolationmode  none
attr source  dropPk
attr title  "packets dropped, sum(packetBytes)"
scalar scenarioPRJP1.node[9].app 	outOfOrderPk:count 	123
attr interpolationmode  none
attr source  outOfOrderPk
attr title  "packets received out of order, count"
scalar scenarioPRJP1.node[9].app 	outOfOrderPk:sum(packetBytes) 	62976
attr interpolationmode  none
attr source  outOfOrderPk
attr title  "packets received out of order, sum(packetBytes)"
scalar scenarioPRJP1.node[9].app 	rcvdPk:count 	91
attr interpolationmode  none
attr source  rcvdPk
attr title  "packets received, count"
scalar scenarioPRJP1.node[9].app 	rcvdPk:sum(packetBytes) 	46592
attr interpolationmode  none
attr source  rcvdPk
attr title  "packets received, sum(packetBytes)"
statistic scenarioPRJP1.node[9].app 	endToEndDelay:histogram
field count 91
field mean 2.7016548471752
field stddev 5.1900737575906
field sum 245.85059109294
field sqrsum 3088.5213459379
field min 0.000945101058
field max 19.40206593689
attr interpolationmode  none
attr source  messageAge(rcvdPk)
attr title  "delay, histogram"
attr unit  s
bin	-INF	0
bin	-9.699615316858	0
bin	-8.4062072611359	0
bin	-7.1127992054137	0
bin	-5.8193911496916	0
bin	-4.5259830939695	0
bin	-3.2325750382473	0
bin	-1.9391669825252	0
bin	-0.64575892680307	61
bin	0.64764912891907	4
bin	1.9410571846412	6
bin	3.2344652403633	2
bin	4.5278732960855	1
bin	5.8212813518076	2
bin	7.1146894075297	2
bin	8.4080974632519	1
bin	9.701505518974	2
bin	10.994913574696	1
bin	12.288321630418	0
bin	13.58172968614	3
bin	14.875137741863	1
bin	16.168545797585	3
bin	17.461953853307	1
bin	18.755361909029	1
bin	20.048769964751	0
bin	21.342178020473	0
bin	22.635586076195	0
bin	23.928994131917	0
bin	25.22240218764	0
bin	26.515810243362	0
bin	27.809218299084	0
bin	29.102626354806	0
scalar scenarioPRJP1.node[9].app 	sentPk:count 	2609
attr interpolationmode  none
attr source  sentPk
attr title  "packets sent, count"
scalar scenarioPRJP1.node[9].app 	sentPk:sum(packetBytes) 	1335808
attr interpolationmode  none
attr source  sentPk
attr title  "packets sent, sum(packetBytes)"
scalar scenarioPRJP1.node[9].udp 	droppedPkBadChecksum:count 	0
attr interpolationmode  none
attr title  "packets dropped (checksum error), count"
scalar scenarioPRJP1.node[9].udp 	droppedPkWrongPort:count 	0
attr interpolationmode  none
attr title  "packets dropped (wrong port), count"
scalar scenarioPRJP1.node[9].udp 	passedUpPk:count 	251
attr interpolationmode  none
attr title  "packets passed up, count"
scalar scenarioPRJP1.node[9].udp 	rcvdPk:count 	251
attr interpolationmode  none
attr source  rcvdPk
attr title  "packets received, count"
scalar scenarioPRJP1.node[9].udp 	rcvdPk:sum(packetBytes) 	130520
attr interpolationmode  none
attr source  rcvdPk
attr title  "packets received, sum(packetBytes)"
scalar scenarioPRJP1.node[9].udp 	sentPk:count 	2609
attr interpolationmode  none
attr source  sentPk
attr title  "packets sent, count"
scalar scenarioPRJP1.node[9].udp 	sentPk:sum(packetBytes) 	1356680
attr interpolationmode  none
attr source  sentPk
attr title  "packets sent, sum(packetBytes)"
scalar scenarioPRJP1.node[9].networkLayer.arp 	failedARPResolution:count 	0
attr title  "ARP failed resolutions, count"
scalar scenarioPRJP1.node[9].networkLayer.arp 	completedARPResolution:count 	21
attr title  "ARP completed resolutions, count"
scalar scenarioPRJP1.node[9].networkLayer.arp 	initiatedARPResolution:count 	6
attr title  "ARP initiated resolutions, count"
scalar scenarioPRJP1.node[9].networkLayer.arp 	sentReply:count 	12
attr title  "ARP replies sent, count"
scalar scenarioPRJP1.node[9].networkLayer.arp 	sentReq:count 	6
attr title  "ARP request sent, count"
scalar scenarioPRJP1.node[9].mobility 	startTime 	2.5
scalar scenarioPRJP1.node[9].mobility 	totalTime 	947.5
scalar scenarioPRJP1.node[9].mobility 	stopTime 	950
scalar scenarioPRJP1.node[9].mobility 	minSpeed 	2.4754487129073e-13
scalar scenarioPRJP1.node[9].mobility 	maxSpeed 	19.655831275881
scalar scenarioPRJP1.node[9].mobility 	totalDistance 	9723.5865529223
scalar scenarioPRJP1.node[9].mobility 	totalCO2Emission 	2562.8424437671
scalar scenarioPRJP1.node[9].wlan[0].mgmt 	dataQueueLen:max 	99
attr interpolationmode  sample-hold
attr title  "data queue length, max"
scalar scenarioPRJP1.node[9].wlan[0].mgmt 	dataQueueLen:timeavg 	0.02563176939317
attr interpolationmode  sample-hold
attr title  "data queue length, timeavg"
scalar scenarioPRJP1.node[9].wlan[0].mgmt 	dropPkByQueue:count 	0
attr interpolationmode  none
attr source  dropPkByQueue
attr title  "packets dropped by queue, count"
scalar scenarioPRJP1.node[9].wlan[0].mgmt 	dropPkByQueue:sum(packetBytes) 	0
attr interpolationmode  none
attr source  dropPkByQueue
attr title  "packets dropped by queue, sum(packetBytes)"
scalar scenarioPRJP1.node[9].wlan[0].mac 	"number of received packets" 	1278
scalar scenarioPRJP1.node[9].wlan[0].mac 	"number of collisions" 	5
scalar scenarioPRJP1.node[9].wlan[0].mac 	"number of internal collisions" 	0
scalar scenarioPRJP1.node[9].wlan[0].mac 	"number of retry for AC 0" 	2028
scalar scenarioPRJP1.node[9].wlan[0].mac 	"number of retry for AC 1" 	0
scalar scenarioPRJP1.node[9].wlan[0].mac 	"number of retry for AC 2" 	0
scalar scenarioPRJP1.node[9].wlan[0].mac 	"number of retry for AC 3" 	0
scalar scenarioPRJP1.node[9].wlan[0].mac 	"sent and received bits" 	1694656
scalar scenarioPRJP1.node[9].wlan[0].mac 	"sent packet within AC 0" 	169
scalar scenarioPRJP1.node[9].wlan[0].mac 	"sent packet within AC 1" 	0
scalar scenarioPRJP1.node[9].wlan[0].mac 	"sent packet within AC 2" 	0
scalar scenarioPRJP1.node[9].wlan[0].mac 	"sent packet within AC 3" 	0
scalar scenarioPRJP1.node[9].wlan[0].mac 	"sent in TXOP " 	0
scalar scenarioPRJP1.node[9].wlan[0].mac 	"sentWithoutRetry AC 0" 	169
scalar scenarioPRJP1.node[9].wlan[0].mac 	"sentWithoutRetry AC 1" 	0
scalar scenarioPRJP1.node[9].wlan[0].mac 	"sentWithoutRetry AC 2" 	0
scalar scenarioPRJP1.node[9].wlan[0].mac 	"sentWithoutRetry AC 3" 	0
scalar scenarioPRJP1.node[9].wlan[0].mac 	"numGivenUp AC 0" 	338
scalar scenarioPRJP1.node[9].wlan[0].mac 	"numGivenUp AC 1" 	0
scalar scenarioPRJP1.node[9].wlan[0].mac 	"numGivenUp AC 2" 	0
scalar scenarioPRJP1.node[9].wlan[0].mac 	"numGivenUp AC 3" 	0
scalar scenarioPRJP1.node[9].wlan[0].mac 	"numDropped AC 0" 	77
scalar scenarioPRJP1.node[9].wlan[0].mac 	"numDropped AC 1" 	0
scalar scenarioPRJP1.node[9].wlan[0].mac 	"numDropped AC 2" 	0
scalar scenarioPRJP1.node[9].wlan[0].mac 	"numDropped AC 3" 	0
scalar scenarioPRJP1.node[9].wlan[0].mac 	rcvdPkFromLL:count 	6457
attr interpolationmode  none
attr source  packetReceivedFromLower
attr title  "packets received from lower layer, count"
scalar scenarioPRJP1.node[9].wlan[0].mac 	rcvdPkFromLL:sum(packetBytes) 	1250144
attr interpolationmode  none
attr source  packetReceivedFromLower
attr title  "packets received from lower layer, sum(packetBytes)"
scalar scenarioPRJP1.node[9].wlan[0].mac 	sentDownPk:count 	5167
attr interpolationmode  none
attr source  packetSentToLower
attr title  "packets sent to lower layer, count"
scalar scenarioPRJP1.node[9].wlan[0].mac 	sentDownPk:sum(packetBytes) 	1529008
attr interpolationmode  none
attr source  packetSentToLower
attr title  "packets sent to lower layer, sum(packetBytes)"
scalar scenarioPRJP1.node[9].wlan[0].mac 	rcvdPkFromHL:count 	1938
attr interpolationmode  none
attr source  packetReceivedFromUpper
attr title  "packets received from higher layer, count"
scalar scenarioPRJP1.node[9].wlan[0].mac 	rcvdPkFromHL:sum(packetBytes) 	434420
attr interpolationmode  none
attr source  packetReceivedFromUpper
attr title  "packets received from higher layer, sum(packetBytes)"
scalar scenarioPRJP1.node[9].wlan[0].mac 	passedUpPk:count 	1374
attr interpolationmode  none
attr source  packetSentToUpper
attr title  "packets passed to higher layer, count"
scalar scenarioPRJP1.node[9].wlan[0].mac 	passedUpPk:sum(packetBytes) 	243856
attr interpolationmode  none
attr source  packetSentToUpper
attr title  "packets passed to higher layer, sum(packetBytes)"
statistic scenarioPRJP1.node[9].wlan[0].radio 	radioChannel:histogram
field count 1
field mean 3
field stddev -nan
field sum 3
field sqrsum 9
field min 3
field max 3
attr interpolationmode  sample-hold
attr source  radioChannelChanged
attr title  "Radio channel, histogram"
bin	-INF	0
bin	2	0
bin	3	1
bin	4	0
scalar scenarioPRJP1.node[9].wlan[0].radio 	transmissionState:count 	20668
attr interpolationmode  sample-hold
attr source  transmissionStateChanged
attr title  "Radio transmission state, count"
scalar scenarioPRJP1.node[9].wlan[0].radio 	receptionState:count 	23255
attr interpolationmode  sample-hold
attr source  receptionStateChanged
attr title  "Radio reception state, count"
scalar scenarioPRJP1.node[9].wlan[0].radio 	radioMode:count 	10336
attr interpolationmode  sample-hold
attr source  radioModeChanged
attr title  "Radio mode, count"
statistic scenarioPRJP1.node[9].wlan[0].radio 	symbolErrorRate:histogram
field count 0
field mean -nan
field stddev -nan
field sum 0
field sqrsum 0
field min -nan
field max -nan
attr source  symbolErrorRate
attr title  "Symbol error rate, histogram"
bin	-INF	0
bin	-0.5	0
bin	-0.46666666666667	0
bin	-0.43333333333333	0
bin	-0.4	0
bin	-0.36666666666667	0
bin	-0.33333333333333	0
bin	-0.3	0
bin	-0.26666666666667	0
bin	-0.23333333333333	0
bin	-0.2	0
bin	-0.16666666666667	0
bin	-0.13333333333333	0
bin	-0.1	0
bin	-0.066666666666667	0
bin	-0.033333333333333	0
bin	0	0
bin	0.033333333333333	0
bin	0.066666666666667	0
bin	0.1	0
bin	0.13333333333333	0
bin	0.16666666666667	0
bin	0.2	0
bin	0.23333333333333	0
bin	0.26666666666667	0
bin	0.3	0
bin	0.33333333333333	0
bin	0.36666666666667	0
bin	0.4	0
bin	0.43333333333333	0
bin	0.46666666666667	0
bin	0.5	0
statistic scenarioPRJP1.node[9].wlan[0].radio 	bitErrorRate:histogram
field count 0
field mean -nan
field stddev -nan
field sum 0
field sqrsum 0
field min -nan
field max -nan
attr source  bitErrorRate
attr title  "Bit error rate, histogram"
bin	-INF	0
bin	-0.5	0
bin	-0.46666666666667	0
bin	-0.43333333333333	0
bin	-0.4	0
bin	-0.36666666666667	0
bin	-0.33333333333333	0
bin	-0.3	0
bin	-0.26666666666667	0
bin	-0.23333333333333	0
bin	-0.2	0
bin	-0.16666666666667	0
bin	-0.13333333333333	0
bin	-0.1	0
bin	-0.066666666666667	0
bin	-0.033333333333333	0
bin	0	0
bin	0.033333333333333	0
bin	0.066666666666667	0
bin	0.1	0
bin	0.13333333333333	0
bin	0.16666666666667	0
bin	0.2	0
bin	0.23333333333333	0
bin	0.26666666666667	0
bin	0.3	0
bin	0.33333333333333	0
bin	0.36666666666667	0
bin	0.4	0
bin	0.43333333333333	0
bin	0.46666666666667	0
bin	0.5	0
statistic scenarioPRJP1.node[9].wlan[0].radio 	packetErrorRate:histogram
field count 6457
field mean 0.00067733313387397
field stddev 0.024072880034584
field sum 4.3735400454243
field sqrsum 3.7442372827826
field min 0
field max 1
attr source  packetErrorRate
attr title  "Packet error rate, histogram"
bin	-INF	0
bin	-0.5	0
bin	-0.46666666666667	0
bin	-0.43333333333333	0
bin	-0.4	0
bin	-0.36666666666667	0
bin	-0.33333333333333	0
bin	-0.3	0
bin	-0.26666666666667	0
bin	-0.23333333333333	0
bin	-0.2	0
bin	-0.16666666666667	0
bin	-0.13333333333333	0
bin	-0.1	0
bin	-0.066666666666667	0
bin	-0.033333333333333	0
bin	0	6451
bin	0.033333333333333	0
bin	0.066666666666667	0
bin	0.1	0
bin	0.13333333333333	1
bin	0.16666666666667	0
bin	0.2	0
bin	0.23333333333333	0
bin	0.26666666666667	0
bin	0.3	0
bin	0.33333333333333	0
bin	0.36666666666667	0
bin	0.4	0
bin	0.43333333333333	0
bin	0.46666666666667	0
bin	0.5	5
statistic scenarioPRJP1.node[9].wlan[0].radio 	minSNIR:histogram
field count 6457
field mean 6079.9319800342
field stddev 36815.459620298
field sum 39258120.795081
field sqrsum 8989007504997.6
field min 0.60211178301168
field max 753239.47754798
attr source  minSNIR
attr title  "Min SNIR, histogram"
bin	-INF	0
bin	-4989.9687484405	0
bin	-4313.923226359	0
bin	-3637.8777042774	0
bin	-2961.8321821959	0
bin	-2285.7866601144	0
bin	-1609.7411380329	0
bin	-933.69561595142	0
bin	-257.65009386991	4806
bin	418.39542821159	326
bin	1094.4409502931	74
bin	1770.4864723746	35
bin	2446.5319944561	24
bin	3122.5775165376	20
bin	3798.6230386191	21
bin	4474.6685607006	18
bin	5150.7140827821	19
bin	5826.7596048637	13
bin	6502.8051269452	11
bin	7178.8506490267	9
bin	7854.8961711082	10
bin	8530.9416931897	8
bin	9206.9872152712	11
bin	9883.0327373527	50
bin	10559.078259434	36
bin	11235.123781516	5
bin	11911.169303597	50
bin	12587.214825679	23
bin	13263.26034776	31
bin	13939.305869842	5
bin	14615.351391923	5
bin	15291.396914005	847
scalar scenarioPRJP1.node[9].lo0.lo 	droppedPkBitError:count 	0
attr interpolationmode  none
attr source  dropPkBitError
attr title  "packets dropped/bit error, count"
scalar scenarioPRJP1.node[9].lo0.lo 	droppedPkBitError:sum(packetBytes) 	0
attr interpolationmode  none
attr source  dropPkBitError
attr title  "packets dropped/bit error, sum(packetBytes)"
scalar scenarioPRJP1.node[9].lo0.lo 	rcvdPkFromHL:count 	0
attr interpolationmode  none
attr source  packetReceivedFromUpper
attr title  "packets received from higher layer, count"
scalar scenarioPRJP1.node[9].lo0.lo 	rcvdPkFromHL:sum(packetBytes) 	0
attr interpolationmode  none
attr source  packetReceivedFromUpper
attr title  "packets received from higher layer, sum(packetBytes)"
scalar scenarioPRJP1.node[9].lo0.lo 	passedUpPk:count 	0
attr interpolationmode  none
attr source  packetSentToUpper
attr title  "packets passed to higher layer, count"
scalar scenarioPRJP1.node[9].lo0.lo 	passedUpPk:sum(packetBytes) 	0
attr interpolationmode  none
attr source  packetSentToUpper
attr title  "packets passed to higher layer, sum(packetBytes)"
