version 2
run DYMOUM-LNS-75n-10-20150717-04:08:51-32268
attr configname DYMOUM-LNS-75n
attr datetime 20150717-04:08:51
attr experiment DYMOUM-LNS-75n
attr inifile omnetpp.ini
attr iterationvars ""
attr iterationvars2 $repetition=10
attr measurement ""
attr network Prj_Part1_propag.scenarioPRJP1
attr processid 32268
attr repetition 10
attr replication #10
attr resultdir results
attr runnumber 10
attr seedset 10

scalar scenarioPRJP1.radioMedium.propagation 	"Arrival computation count" 	201239140
scalar scenarioPRJP1.radioMedium 	"transmission count" 	2719523
scalar scenarioPRJP1.radioMedium 	"radio frame send count" 	201239140
scalar scenarioPRJP1.radioMedium 	"reception computation count" 	200508044
scalar scenarioPRJP1.radioMedium 	"interference computation count" 	427454419
scalar scenarioPRJP1.radioMedium 	"reception decision computation count" 	78399928
scalar scenarioPRJP1.radioMedium 	"listening decision computation count" 	151185903
scalar scenarioPRJP1.radioMedium 	"reception cache hit" 	83.363837438386
attr unit  %
scalar scenarioPRJP1.radioMedium 	"interference cache hit" 	50
attr unit  %
scalar scenarioPRJP1.radioMedium 	"noise cache hit" 	0
attr unit  %
scalar scenarioPRJP1.radioMedium 	"snir cache hit" 	0
attr unit  %
scalar scenarioPRJP1.radioMedium 	"reception decision cache hit" 	0
attr unit  %
scalar scenarioPRJP1.node[0].app 	"Total sent" 	2610
scalar scenarioPRJP1.node[0].app 	"Total received" 	498
scalar scenarioPRJP1.node[0].app 	"Total deleted" 	0
scalar scenarioPRJP1.node[0].app 	dropPk:count 	0
attr interpolationmode  none
attr source  dropPk
attr title  "packets dropped, count"
scalar scenarioPRJP1.node[0].app 	dropPk:sum(packetBytes) 	0
attr interpolationmode  none
attr source  dropPk
attr title  "packets dropped, sum(packetBytes)"
scalar scenarioPRJP1.node[0].app 	outOfOrderPk:count 	0
attr interpolationmode  none
attr source  outOfOrderPk
attr title  "packets received out of order, count"
scalar scenarioPRJP1.node[0].app 	outOfOrderPk:sum(packetBytes) 	0
attr interpolationmode  none
attr source  outOfOrderPk
attr title  "packets received out of order, sum(packetBytes)"
scalar scenarioPRJP1.node[0].app 	rcvdPk:count 	498
attr interpolationmode  none
attr source  rcvdPk
attr title  "packets received, count"
scalar scenarioPRJP1.node[0].app 	rcvdPk:sum(packetBytes) 	254976
attr interpolationmode  none
attr source  rcvdPk
attr title  "packets received, sum(packetBytes)"
statistic scenarioPRJP1.node[0].app 	endToEndDelay:histogram
field count 498
field mean 3.005722425215
field stddev 3.2477403037255
field sum 1496.8497677571
field sqrsum 9741.3800031053
field min 0.001128461609
field max 18.135808434438
attr interpolationmode  none
attr source  messageAge(rcvdPk)
attr title  "delay, histogram"
attr unit  s
bin	-INF	0
bin	-8.7569607866275	0
bin	-7.5891349969946	0
bin	-6.4213092073618	0
bin	-5.2534834177289	0
bin	-4.085657628096	0
bin	-2.9178318384632	0
bin	-1.7500060488303	0
bin	-0.58218025919743	120
bin	0.58564553043543	106
bin	1.7534713200683	94
bin	2.9212971097012	59
bin	4.089122899334	24
bin	5.2569486889669	28
bin	6.4247744785998	19
bin	7.5926002682326	10
bin	8.7604260578655	11
bin	9.9282518474984	11
bin	11.096077637131	7
bin	12.263903426764	2
bin	13.431729216397	1
bin	14.59955500603	2
bin	15.767380795663	1
bin	16.935206585296	2
bin	18.103032374928	1
bin	19.270858164561	0
bin	20.438683954194	0
bin	21.606509743827	0
bin	22.77433553346	0
bin	23.942161323093	0
bin	25.109987112726	0
bin	26.277812902358	0
scalar scenarioPRJP1.node[0].app 	sentPk:count 	2610
attr interpolationmode  none
attr source  sentPk
attr title  "packets sent, count"
scalar scenarioPRJP1.node[0].app 	sentPk:sum(packetBytes) 	1336320
attr interpolationmode  none
attr source  sentPk
attr title  "packets sent, sum(packetBytes)"
scalar scenarioPRJP1.node[0].udp 	droppedPkBadChecksum:count 	0
attr interpolationmode  none
attr title  "packets dropped (checksum error), count"
scalar scenarioPRJP1.node[0].udp 	droppedPkWrongPort:count 	0
attr interpolationmode  none
attr title  "packets dropped (wrong port), count"
scalar scenarioPRJP1.node[0].udp 	passedUpPk:count 	498
attr interpolationmode  none
attr title  "packets passed up, count"
scalar scenarioPRJP1.node[0].udp 	rcvdPk:count 	498
attr interpolationmode  none
attr source  rcvdPk
attr title  "packets received, count"
scalar scenarioPRJP1.node[0].udp 	rcvdPk:sum(packetBytes) 	258960
attr interpolationmode  none
attr source  rcvdPk
attr title  "packets received, sum(packetBytes)"
scalar scenarioPRJP1.node[0].udp 	sentPk:count 	2610
attr interpolationmode  none
attr source  sentPk
attr title  "packets sent, count"
scalar scenarioPRJP1.node[0].udp 	sentPk:sum(packetBytes) 	1357200
attr interpolationmode  none
attr source  sentPk
attr title  "packets sent, sum(packetBytes)"
scalar scenarioPRJP1.node[0].networkLayer.arp 	failedARPResolution:count 	132
attr title  "ARP failed resolutions, count"
scalar scenarioPRJP1.node[0].networkLayer.arp 	completedARPResolution:count 	5651
attr title  "ARP completed resolutions, count"
scalar scenarioPRJP1.node[0].networkLayer.arp 	initiatedARPResolution:count 	202
attr title  "ARP initiated resolutions, count"
scalar scenarioPRJP1.node[0].networkLayer.arp 	sentReply:count 	71
attr title  "ARP replies sent, count"
scalar scenarioPRJP1.node[0].networkLayer.arp 	sentReq:count 	514
attr title  "ARP request sent, count"
scalar scenarioPRJP1.node[0].manetrouting 	"simulated time" 	950
scalar scenarioPRJP1.node[0].manetrouting 	"Dymo totalSend " 	2742380
scalar scenarioPRJP1.node[0].manetrouting 	"Dymo Rreq send" 	1496785
scalar scenarioPRJP1.node[0].manetrouting 	"Dymo Rreq rec" 	1470880
scalar scenarioPRJP1.node[0].manetrouting 	"Dymo Rrep send" 	28548
scalar scenarioPRJP1.node[0].manetrouting 	"Dymo Rrep rec" 	11474
scalar scenarioPRJP1.node[0].manetrouting 	"Dymo Rerr send" 	17010
scalar scenarioPRJP1.node[0].manetrouting 	"Dymo Rerr rec" 	120871
scalar scenarioPRJP1.node[0].mobility 	startTime 	0.1
scalar scenarioPRJP1.node[0].mobility 	totalTime 	949.9
scalar scenarioPRJP1.node[0].mobility 	stopTime 	950
scalar scenarioPRJP1.node[0].mobility 	minSpeed 	2.4754856253704e-13
scalar scenarioPRJP1.node[0].mobility 	maxSpeed 	17.124302552663
scalar scenarioPRJP1.node[0].mobility 	totalDistance 	8154.9592126986
scalar scenarioPRJP1.node[0].mobility 	totalCO2Emission 	2367.2165914481
scalar scenarioPRJP1.node[0].wlan.mgmt 	dataQueueLen:max 	100
attr interpolationmode  sample-hold
attr title  "data queue length, max"
scalar scenarioPRJP1.node[0].wlan.mgmt 	dataQueueLen:timeavg 	7.7043189074934
attr interpolationmode  sample-hold
attr title  "data queue length, timeavg"
scalar scenarioPRJP1.node[0].wlan.mgmt 	dropPkByQueue:count 	412
attr interpolationmode  none
attr source  dropPkByQueue
attr title  "packets dropped by queue, count"
scalar scenarioPRJP1.node[0].wlan.mgmt 	dropPkByQueue:sum(packetBytes) 	90375
attr interpolationmode  none
attr source  dropPkByQueue
attr title  "packets dropped by queue, sum(packetBytes)"
scalar scenarioPRJP1.node[0].wlan.mac 	"number of received packets" 	3002
scalar scenarioPRJP1.node[0].wlan.mac 	"number of collisions" 	726611
scalar scenarioPRJP1.node[0].wlan.mac 	"number of internal collisions" 	0
scalar scenarioPRJP1.node[0].wlan.mac 	"number of retry for AC 0" 	16572
scalar scenarioPRJP1.node[0].wlan.mac 	"number of retry for AC 1" 	12
scalar scenarioPRJP1.node[0].wlan.mac 	"number of retry for AC 2" 	0
scalar scenarioPRJP1.node[0].wlan.mac 	"number of retry for AC 3" 	0
scalar scenarioPRJP1.node[0].wlan.mac 	"sent and received bits" 	22019336
scalar scenarioPRJP1.node[0].wlan.mac 	"sent packet within AC 0" 	462
scalar scenarioPRJP1.node[0].wlan.mac 	"sent packet within AC 1" 	4
scalar scenarioPRJP1.node[0].wlan.mac 	"sent packet within AC 2" 	0
scalar scenarioPRJP1.node[0].wlan.mac 	"sent packet within AC 3" 	0
scalar scenarioPRJP1.node[0].wlan.mac 	"sent in TXOP " 	0
scalar scenarioPRJP1.node[0].wlan.mac 	"sentWithoutRetry AC 0" 	298
scalar scenarioPRJP1.node[0].wlan.mac 	"sentWithoutRetry AC 1" 	4
scalar scenarioPRJP1.node[0].wlan.mac 	"sentWithoutRetry AC 2" 	0
scalar scenarioPRJP1.node[0].wlan.mac 	"sentWithoutRetry AC 3" 	0
scalar scenarioPRJP1.node[0].wlan.mac 	"numGivenUp AC 0" 	2713
scalar scenarioPRJP1.node[0].wlan.mac 	"numGivenUp AC 1" 	2
scalar scenarioPRJP1.node[0].wlan.mac 	"numGivenUp AC 2" 	0
scalar scenarioPRJP1.node[0].wlan.mac 	"numGivenUp AC 3" 	0
scalar scenarioPRJP1.node[0].wlan.mac 	"numDropped AC 0" 	2517
scalar scenarioPRJP1.node[0].wlan.mac 	"numDropped AC 1" 	0
scalar scenarioPRJP1.node[0].wlan.mac 	"numDropped AC 2" 	0
scalar scenarioPRJP1.node[0].wlan.mac 	"numDropped AC 3" 	0
scalar scenarioPRJP1.node[0].wlan.mac 	rcvdPkFromLL:count 	1048225
attr interpolationmode  none
attr source  packetReceivedFromLower
attr title  "packets received from lower layer, count"
scalar scenarioPRJP1.node[0].wlan.mac 	rcvdPkFromLL:sum(packetBytes) 	355852207
attr interpolationmode  none
attr source  packetReceivedFromLower
attr title  "packets received from lower layer, sum(packetBytes)"
scalar scenarioPRJP1.node[0].wlan.mac 	sentDownPk:count 	36057
attr interpolationmode  none
attr source  packetSentToLower
attr title  "packets sent to lower layer, count"
scalar scenarioPRJP1.node[0].wlan.mac 	sentDownPk:sum(packetBytes) 	13019062
attr interpolationmode  none
attr source  packetSentToLower
attr title  "packets sent to lower layer, sum(packetBytes)"
scalar scenarioPRJP1.node[0].wlan.mac 	rcvdPkFromHL:count 	19013
attr interpolationmode  none
attr source  packetReceivedFromUpper
attr title  "packets received from higher layer, count"
scalar scenarioPRJP1.node[0].wlan.mac 	rcvdPkFromHL:sum(packetBytes) 	4817393
attr interpolationmode  none
attr source  packetReceivedFromUpper
attr title  "packets received from higher layer, sum(packetBytes)"
scalar scenarioPRJP1.node[0].wlan.mac 	passedUpPk:count 	134434
attr interpolationmode  none
attr source  packetSentToUpper
attr title  "packets passed to higher layer, count"
scalar scenarioPRJP1.node[0].wlan.mac 	passedUpPk:sum(packetBytes) 	24251156
attr interpolationmode  none
attr source  packetSentToUpper
attr title  "packets passed to higher layer, sum(packetBytes)"
statistic scenarioPRJP1.node[0].wlan.radio 	radioChannel:histogram
field count 1
field mean 3
field stddev -nan
field sum 3
field sqrsum 9
field min 3
field max 3
attr interpolationmode  sample-hold
attr source  radioChannelChanged
attr title  "Radio channel, histogram"
bin	-INF	0
bin	2	0
bin	3	1
bin	4	0
scalar scenarioPRJP1.node[0].wlan.radio 	transmissionState:count 	144228
attr interpolationmode  sample-hold
attr source  transmissionStateChanged
attr title  "Radio transmission state, count"
scalar scenarioPRJP1.node[0].wlan.radio 	receptionState:count 	2412227
attr interpolationmode  sample-hold
attr source  receptionStateChanged
attr title  "Radio reception state, count"
scalar scenarioPRJP1.node[0].wlan.radio 	radioMode:count 	72116
attr interpolationmode  sample-hold
attr source  radioModeChanged
attr title  "Radio mode, count"
statistic scenarioPRJP1.node[0].wlan.radio 	symbolErrorRate:histogram
field count 0
field mean -nan
field stddev -nan
field sum 0
field sqrsum 0
field min -nan
field max -nan
attr source  symbolErrorRate
attr title  "Symbol error rate, histogram"
bin	-INF	0
bin	-0.5	0
bin	-0.46666666666667	0
bin	-0.43333333333333	0
bin	-0.4	0
bin	-0.36666666666667	0
bin	-0.33333333333333	0
bin	-0.3	0
bin	-0.26666666666667	0
bin	-0.23333333333333	0
bin	-0.2	0
bin	-0.16666666666667	0
bin	-0.13333333333333	0
bin	-0.1	0
bin	-0.066666666666667	0
bin	-0.033333333333333	0
bin	0	0
bin	0.033333333333333	0
bin	0.066666666666667	0
bin	0.1	0
bin	0.13333333333333	0
bin	0.16666666666667	0
bin	0.2	0
bin	0.23333333333333	0
bin	0.26666666666667	0
bin	0.3	0
bin	0.33333333333333	0
bin	0.36666666666667	0
bin	0.4	0
bin	0.43333333333333	0
bin	0.46666666666667	0
bin	0.5	0
statistic scenarioPRJP1.node[0].wlan.radio 	bitErrorRate:histogram
field count 0
field mean -nan
field stddev -nan
field sum 0
field sqrsum 0
field min -nan
field max -nan
attr source  bitErrorRate
attr title  "Bit error rate, histogram"
bin	-INF	0
bin	-0.5	0
bin	-0.46666666666667	0
bin	-0.43333333333333	0
bin	-0.4	0
bin	-0.36666666666667	0
bin	-0.33333333333333	0
bin	-0.3	0
bin	-0.26666666666667	0
bin	-0.23333333333333	0
bin	-0.2	0
bin	-0.16666666666667	0
bin	-0.13333333333333	0
bin	-0.1	0
bin	-0.066666666666667	0
bin	-0.033333333333333	0
bin	0	0
bin	0.033333333333333	0
bin	0.066666666666667	0
bin	0.1	0
bin	0.13333333333333	0
bin	0.16666666666667	0
bin	0.2	0
bin	0.23333333333333	0
bin	0.26666666666667	0
bin	0.3	0
bin	0.33333333333333	0
bin	0.36666666666667	0
bin	0.4	0
bin	0.43333333333333	0
bin	0.46666666666667	0
bin	0.5	0
statistic scenarioPRJP1.node[0].wlan.radio 	packetErrorRate:histogram
field count 1048225
field mean 0.66465135450801
field stddev 0.46404502430911
field sum 696704.16607915
field sqrsum 688787.6015858
field min 0
field max 1
attr source  packetErrorRate
attr title  "Packet error rate, histogram"
bin	-INF	0
bin	-0.5	0
bin	-0.43333333333333	0
bin	-0.36666666666667	0
bin	-0.3	0
bin	-0.23333333333333	0
bin	-0.16666666666667	0
bin	-0.1	0
bin	-0.033333333333333	319771
bin	0.033333333333333	12399
bin	0.1	6313
bin	0.16666666666667	4315
bin	0.23333333333333	3449
bin	0.3	2860
bin	0.36666666666667	2477
bin	0.43333333333333	2251
bin	0.5	2158
bin	0.56666666666667	2126
bin	0.63333333333333	2093
bin	0.7	2167
bin	0.76666666666667	2483
bin	0.83333333333333	2936
bin	0.9	4432
bin	0.96666666666667	675995
bin	1.0333333333333	0
bin	1.1	0
bin	1.1666666666667	0
bin	1.2333333333333	0
bin	1.3	0
bin	1.3666666666667	0
bin	1.4333333333333	0
bin	1.5	0
statistic scenarioPRJP1.node[0].wlan.radio 	minSNIR:histogram
field count 1048225
field mean 1341.1012833586
field stddev 72184.428080528
field sum 1405775892.7486
field sqrsum 5.4637525172491e+15
field min 5.224673178924e-06
field max 23601941.875205
attr source  minSNIR
attr title  "Min SNIR, histogram"
bin	-INF	0
bin	-131190.35150205	0
bin	-113698.3042932	0
bin	-96206.257084359	0
bin	-78714.209875514	0
bin	-61222.162666669	0
bin	-43730.115457824	0
bin	-26238.068248979	0
bin	-8746.0210401333	1042151
bin	8746.0261687119	3549
bin	26238.073377557	757
bin	43730.120586402	380
bin	61222.167795247	190
bin	78714.215004093	137
bin	96206.262212938	105
bin	113698.30942178	81
bin	131190.35663063	51
bin	148682.40383947	45
bin	166174.45104832	44
bin	183666.49825716	36
bin	201158.54546601	24
bin	218650.59267485	14
bin	236142.6398837	26
bin	253634.68709254	18
bin	271126.73430139	14
bin	288618.78151024	11
bin	306110.82871908	18
bin	323602.87592793	13
bin	341094.92313677	17
bin	358586.97034562	13
bin	376079.01755446	11
bin	393571.06476331	520
scalar scenarioPRJP1.node[0].lo0.lo 	droppedPkBitError:count 	0
attr interpolationmode  none
attr source  dropPkBitError
attr title  "packets dropped/bit error, count"
scalar scenarioPRJP1.node[0].lo0.lo 	droppedPkBitError:sum(packetBytes) 	0
attr interpolationmode  none
attr source  dropPkBitError
attr title  "packets dropped/bit error, sum(packetBytes)"
scalar scenarioPRJP1.node[0].lo0.lo 	rcvdPkFromHL:count 	0
attr interpolationmode  none
attr source  packetReceivedFromUpper
attr title  "packets received from higher layer, count"
scalar scenarioPRJP1.node[0].lo0.lo 	rcvdPkFromHL:sum(packetBytes) 	0
attr interpolationmode  none
attr source  packetReceivedFromUpper
attr title  "packets received from higher layer, sum(packetBytes)"
scalar scenarioPRJP1.node[0].lo0.lo 	passedUpPk:count 	0
attr interpolationmode  none
attr source  packetSentToUpper
attr title  "packets passed to higher layer, count"
scalar scenarioPRJP1.node[0].lo0.lo 	passedUpPk:sum(packetBytes) 	0
attr interpolationmode  none
attr source  packetSentToUpper
attr title  "packets passed to higher layer, sum(packetBytes)"
scalar scenarioPRJP1.node[20].app 	"Total sent" 	2615
scalar scenarioPRJP1.node[20].app 	"Total received" 	455
scalar scenarioPRJP1.node[20].app 	"Total deleted" 	0
scalar scenarioPRJP1.node[20].app 	dropPk:count 	0
attr interpolationmode  none
attr source  dropPk
attr title  "packets dropped, count"
scalar scenarioPRJP1.node[20].app 	dropPk:sum(packetBytes) 	0
attr interpolationmode  none
attr source  dropPk
attr title  "packets dropped, sum(packetBytes)"
scalar scenarioPRJP1.node[20].app 	outOfOrderPk:count 	0
attr interpolationmode  none
attr source  outOfOrderPk
attr title  "packets received out of order, count"
scalar scenarioPRJP1.node[20].app 	outOfOrderPk:sum(packetBytes) 	0
attr interpolationmode  none
attr source  outOfOrderPk
attr title  "packets received out of order, sum(packetBytes)"
scalar scenarioPRJP1.node[20].app 	rcvdPk:count 	455
attr interpolationmode  none
attr source  rcvdPk
attr title  "packets received, count"
scalar scenarioPRJP1.node[20].app 	rcvdPk:sum(packetBytes) 	232960
attr interpolationmode  none
attr source  rcvdPk
attr title  "packets received, sum(packetBytes)"
statistic scenarioPRJP1.node[20].app 	endToEndDelay:histogram
field count 455
field mean 3.1421672462924
field stddev 3.1608547017313
field sum 1429.686097063
field sqrsum 9028.2279369086
field min 0.001981794269
field max 16.213894192211
attr interpolationmode  none
attr source  messageAge(rcvdPk)
attr title  "delay, histogram"
attr unit  s
bin	-INF	0
bin	-8.0215545783945	0
bin	-6.951749728706	0
bin	-5.8819448790176	0
bin	-4.8121400293291	0
bin	-3.7423351796406	0
bin	-2.6725303299522	0
bin	-1.6027254802637	0
bin	-0.53292063057523	93
bin	0.53688421911323	85
bin	1.6066890688017	91
bin	2.6764939184902	44
bin	3.7462987681786	35
bin	4.8161036178671	32
bin	5.8859084675556	19
bin	6.955713317244	17
bin	8.0255181669325	10
bin	9.095323016621	6
bin	10.165127866309	9
bin	11.234932715998	6
bin	12.304737565686	2
bin	13.374542415375	3
bin	14.444347265063	0
bin	15.514152114752	3
bin	16.58395696444	0
bin	17.653761814129	0
bin	18.723566663817	0
bin	19.793371513506	0
bin	20.863176363194	0
bin	21.932981212883	0
bin	23.002786062571	0
bin	24.072590912259	0
scalar scenarioPRJP1.node[20].app 	sentPk:count 	2615
attr interpolationmode  none
attr source  sentPk
attr title  "packets sent, count"
scalar scenarioPRJP1.node[20].app 	sentPk:sum(packetBytes) 	1338880
attr interpolationmode  none
attr source  sentPk
attr title  "packets sent, sum(packetBytes)"
scalar scenarioPRJP1.node[20].udp 	droppedPkBadChecksum:count 	0
attr interpolationmode  none
attr title  "packets dropped (checksum error), count"
scalar scenarioPRJP1.node[20].udp 	droppedPkWrongPort:count 	0
attr interpolationmode  none
attr title  "packets dropped (wrong port), count"
scalar scenarioPRJP1.node[20].udp 	passedUpPk:count 	455
attr interpolationmode  none
attr title  "packets passed up, count"
scalar scenarioPRJP1.node[20].udp 	rcvdPk:count 	455
attr interpolationmode  none
attr source  rcvdPk
attr title  "packets received, count"
scalar scenarioPRJP1.node[20].udp 	rcvdPk:sum(packetBytes) 	236600
attr interpolationmode  none
attr source  rcvdPk
attr title  "packets received, sum(packetBytes)"
scalar scenarioPRJP1.node[20].udp 	sentPk:count 	2615
attr interpolationmode  none
attr source  sentPk
attr title  "packets sent, count"
scalar scenarioPRJP1.node[20].udp 	sentPk:sum(packetBytes) 	1359800
attr interpolationmode  none
attr source  sentPk
attr title  "packets sent, sum(packetBytes)"
scalar scenarioPRJP1.node[20].networkLayer.arp 	failedARPResolution:count 	210
attr title  "ARP failed resolutions, count"
scalar scenarioPRJP1.node[20].networkLayer.arp 	completedARPResolution:count 	5639
attr title  "ARP completed resolutions, count"
scalar scenarioPRJP1.node[20].networkLayer.arp 	initiatedARPResolution:count 	276
attr title  "ARP initiated resolutions, count"
scalar scenarioPRJP1.node[20].networkLayer.arp 	sentReply:count 	39
attr title  "ARP replies sent, count"
scalar scenarioPRJP1.node[20].networkLayer.arp 	sentReq:count 	750
attr title  "ARP request sent, count"
scalar scenarioPRJP1.node[20].mobility 	startTime 	2.5
scalar scenarioPRJP1.node[20].mobility 	totalTime 	947.5
scalar scenarioPRJP1.node[20].mobility 	stopTime 	950
scalar scenarioPRJP1.node[20].mobility 	minSpeed 	2.475646567438e-13
scalar scenarioPRJP1.node[20].mobility 	maxSpeed 	16.125528671235
scalar scenarioPRJP1.node[20].mobility 	totalDistance 	8408.8946044362
scalar scenarioPRJP1.node[20].mobility 	totalCO2Emission 	2275.6752179693
scalar scenarioPRJP1.node[20].wlan.mgmt 	dataQueueLen:max 	100
attr interpolationmode  sample-hold
attr title  "data queue length, max"
scalar scenarioPRJP1.node[20].wlan.mgmt 	dataQueueLen:timeavg 	6.2100578663969
attr interpolationmode  sample-hold
attr title  "data queue length, timeavg"
scalar scenarioPRJP1.node[20].wlan.mgmt 	dropPkByQueue:count 	19
attr interpolationmode  none
attr source  dropPkByQueue
attr title  "packets dropped by queue, count"
scalar scenarioPRJP1.node[20].wlan.mgmt 	dropPkByQueue:sum(packetBytes) 	4787
attr interpolationmode  none
attr source  dropPkByQueue
attr title  "packets dropped by queue, sum(packetBytes)"
scalar scenarioPRJP1.node[20].wlan.mac 	"number of received packets" 	2963
scalar scenarioPRJP1.node[20].wlan.mac 	"number of collisions" 	732436
scalar scenarioPRJP1.node[20].wlan.mac 	"number of internal collisions" 	3
scalar scenarioPRJP1.node[20].wlan.mac 	"number of retry for AC 0" 	16273
scalar scenarioPRJP1.node[20].wlan.mac 	"number of retry for AC 1" 	30
scalar scenarioPRJP1.node[20].wlan.mac 	"number of retry for AC 2" 	0
scalar scenarioPRJP1.node[20].wlan.mac 	"number of retry for AC 3" 	0
scalar scenarioPRJP1.node[20].wlan.mac 	"sent and received bits" 	21319768
scalar scenarioPRJP1.node[20].wlan.mac 	"sent packet within AC 0" 	367
scalar scenarioPRJP1.node[20].wlan.mac 	"sent packet within AC 1" 	1
scalar scenarioPRJP1.node[20].wlan.mac 	"sent packet within AC 2" 	0
scalar scenarioPRJP1.node[20].wlan.mac 	"sent packet within AC 3" 	0
scalar scenarioPRJP1.node[20].wlan.mac 	"sent in TXOP " 	0
scalar scenarioPRJP1.node[20].wlan.mac 	"sentWithoutRetry AC 0" 	254
scalar scenarioPRJP1.node[20].wlan.mac 	"sentWithoutRetry AC 1" 	1
scalar scenarioPRJP1.node[20].wlan.mac 	"sentWithoutRetry AC 2" 	0
scalar scenarioPRJP1.node[20].wlan.mac 	"sentWithoutRetry AC 3" 	0
scalar scenarioPRJP1.node[20].wlan.mac 	"numGivenUp AC 0" 	2676
scalar scenarioPRJP1.node[20].wlan.mac 	"numGivenUp AC 1" 	5
scalar scenarioPRJP1.node[20].wlan.mac 	"numGivenUp AC 2" 	0
scalar scenarioPRJP1.node[20].wlan.mac 	"numGivenUp AC 3" 	0
scalar scenarioPRJP1.node[20].wlan.mac 	"numDropped AC 0" 	3166
scalar scenarioPRJP1.node[20].wlan.mac 	"numDropped AC 1" 	0
scalar scenarioPRJP1.node[20].wlan.mac 	"numDropped AC 2" 	0
scalar scenarioPRJP1.node[20].wlan.mac 	"numDropped AC 3" 	0
scalar scenarioPRJP1.node[20].wlan.mac 	rcvdPkFromLL:count 	1051795
attr interpolationmode  none
attr source  packetReceivedFromLower
attr title  "packets received from lower layer, count"
scalar scenarioPRJP1.node[20].wlan.mac 	rcvdPkFromLL:sum(packetBytes) 	356009095
attr interpolationmode  none
attr source  packetReceivedFromLower
attr title  "packets received from lower layer, sum(packetBytes)"
scalar scenarioPRJP1.node[20].wlan.mac 	sentDownPk:count 	35590
attr interpolationmode  none
attr source  packetSentToLower
attr title  "packets sent to lower layer, count"
scalar scenarioPRJP1.node[20].wlan.mac 	sentDownPk:sum(packetBytes) 	12800373
attr interpolationmode  none
attr source  packetSentToLower
attr title  "packets sent to lower layer, sum(packetBytes)"
scalar scenarioPRJP1.node[20].wlan.mac 	rcvdPkFromHL:count 	19527
attr interpolationmode  none
attr source  packetReceivedFromUpper
attr title  "packets received from higher layer, count"
scalar scenarioPRJP1.node[20].wlan.mac 	rcvdPkFromHL:sum(packetBytes) 	4852151
attr interpolationmode  none
attr source  packetReceivedFromUpper
attr title  "packets received from higher layer, sum(packetBytes)"
scalar scenarioPRJP1.node[20].wlan.mac 	passedUpPk:count 	134845
attr interpolationmode  none
attr source  packetSentToUpper
attr title  "packets passed to higher layer, count"
scalar scenarioPRJP1.node[20].wlan.mac 	passedUpPk:sum(packetBytes) 	24244332
attr interpolationmode  none
attr source  packetSentToUpper
attr title  "packets passed to higher layer, sum(packetBytes)"
statistic scenarioPRJP1.node[20].wlan.radio 	radioChannel:histogram
field count 1
field mean 3
field stddev -nan
field sum 3
field sqrsum 9
field min 3
field max 3
attr interpolationmode  sample-hold
attr source  radioChannelChanged
attr title  "Radio channel, histogram"
bin	-INF	0
bin	2	0
bin	3	1
bin	4	0
scalar scenarioPRJP1.node[20].wlan.radio 	transmissionState:count 	142360
attr interpolationmode  sample-hold
attr source  transmissionStateChanged
attr title  "Radio transmission state, count"
scalar scenarioPRJP1.node[20].wlan.radio 	receptionState:count 	2419541
attr interpolationmode  sample-hold
attr source  receptionStateChanged
attr title  "Radio reception state, count"
scalar scenarioPRJP1.node[20].wlan.radio 	radioMode:count 	71182
attr interpolationmode  sample-hold
attr source  radioModeChanged
attr title  "Radio mode, count"
statistic scenarioPRJP1.node[20].wlan.radio 	symbolErrorRate:histogram
field count 0
field mean -nan
field stddev -nan
field sum 0
field sqrsum 0
field min -nan
field max -nan
attr source  symbolErrorRate
attr title  "Symbol error rate, histogram"
bin	-INF	0
bin	-0.5	0
bin	-0.46666666666667	0
bin	-0.43333333333333	0
bin	-0.4	0
bin	-0.36666666666667	0
bin	-0.33333333333333	0
bin	-0.3	0
bin	-0.26666666666667	0
bin	-0.23333333333333	0
bin	-0.2	0
bin	-0.16666666666667	0
bin	-0.13333333333333	0
bin	-0.1	0
bin	-0.066666666666667	0
bin	-0.033333333333333	0
bin	0	0
bin	0.033333333333333	0
bin	0.066666666666667	0
bin	0.1	0
bin	0.13333333333333	0
bin	0.16666666666667	0
bin	0.2	0
bin	0.23333333333333	0
bin	0.26666666666667	0
bin	0.3	0
bin	0.33333333333333	0
bin	0.36666666666667	0
bin	0.4	0
bin	0.43333333333333	0
bin	0.46666666666667	0
bin	0.5	0
statistic scenarioPRJP1.node[20].wlan.radio 	bitErrorRate:histogram
field count 0
field mean -nan
field stddev -nan
field sum 0
field sqrsum 0
field min -nan
field max -nan
attr source  bitErrorRate
attr title  "Bit error rate, histogram"
bin	-INF	0
bin	-0.5	0
bin	-0.46666666666667	0
bin	-0.43333333333333	0
bin	-0.4	0
bin	-0.36666666666667	0
bin	-0.33333333333333	0
bin	-0.3	0
bin	-0.26666666666667	0
bin	-0.23333333333333	0
bin	-0.2	0
bin	-0.16666666666667	0
bin	-0.13333333333333	0
bin	-0.1	0
bin	-0.066666666666667	0
bin	-0.033333333333333	0
bin	0	0
bin	0.033333333333333	0
bin	0.066666666666667	0
bin	0.1	0
bin	0.13333333333333	0
bin	0.16666666666667	0
bin	0.2	0
bin	0.23333333333333	0
bin	0.26666666666667	0
bin	0.3	0
bin	0.33333333333333	0
bin	0.36666666666667	0
bin	0.4	0
bin	0.43333333333333	0
bin	0.46666666666667	0
bin	0.5	0
statistic scenarioPRJP1.node[20].wlan.radio 	packetErrorRate:histogram
field count 1051795
field mean 0.66744562144167
field stddev 0.46293407842108
field sum 702015.96740424
field sqrsum 693965.31111982
field min 0
field max 1
attr source  packetErrorRate
attr title  "Packet error rate, histogram"
bin	-INF	0
bin	-0.5	0
bin	-0.43333333333333	0
bin	-0.36666666666667	0
bin	-0.3	0
bin	-0.23333333333333	0
bin	-0.16666666666667	0
bin	-0.1	0
bin	-0.033333333333333	317474
bin	0.033333333333333	12730
bin	0.1	6291
bin	0.16666666666667	4439
bin	0.23333333333333	3431
bin	0.3	2822
bin	0.36666666666667	2614
bin	0.43333333333333	2318
bin	0.5	2192
bin	0.56666666666667	2167
bin	0.63333333333333	2109
bin	0.7	2324
bin	0.76666666666667	2439
bin	0.83333333333333	2954
bin	0.9	4550
bin	0.96666666666667	680941
bin	1.0333333333333	0
bin	1.1	0
bin	1.1666666666667	0
bin	1.2333333333333	0
bin	1.3	0
bin	1.3666666666667	0
bin	1.4333333333333	0
bin	1.5	0
statistic scenarioPRJP1.node[20].wlan.radio 	minSNIR:histogram
field count 1051795
field mean 711.09158217174
field stddev 43913.929770013
field sum 747922570.67033
field sqrsum 2.0288463398928e+15
field min 3.8610281421681e-06
field max 14828024.55659
attr source  minSNIR
attr title  "Min SNIR, histogram"
bin	-INF	0
bin	-256385.22558675	0
bin	-222200.52751949	0
bin	-188015.82945224	0
bin	-153831.13138499	0
bin	-119646.43331774	0
bin	-85461.735250488	0
bin	-51277.037183236	0
bin	-17092.339115984	1049473
bin	17092.358951267	1167
bin	51277.057018519	312
bin	85461.755085771	164
bin	119646.45315302	104
bin	153831.15122027	69
bin	188015.84928753	60
bin	222200.54735478	41
bin	256385.24542203	40
bin	290569.94348928	15
bin	324754.64155653	31
bin	358939.33962378	17
bin	393124.03769104	15
bin	427308.73575829	12
bin	461493.43382554	17
bin	495678.13189279	17
bin	529862.82996004	14
bin	564047.52802729	18
bin	598232.22609455	7
bin	632416.9241618	16
bin	666601.62222905	9
bin	700786.3202963	7
bin	734971.01836355	1
bin	769155.7164308	169
scalar scenarioPRJP1.node[20].lo0.lo 	droppedPkBitError:count 	0
attr interpolationmode  none
attr source  dropPkBitError
attr title  "packets dropped/bit error, count"
scalar scenarioPRJP1.node[20].lo0.lo 	droppedPkBitError:sum(packetBytes) 	0
attr interpolationmode  none
attr source  dropPkBitError
attr title  "packets dropped/bit error, sum(packetBytes)"
scalar scenarioPRJP1.node[20].lo0.lo 	rcvdPkFromHL:count 	0
attr interpolationmode  none
attr source  packetReceivedFromUpper
attr title  "packets received from higher layer, count"
scalar scenarioPRJP1.node[20].lo0.lo 	rcvdPkFromHL:sum(packetBytes) 	0
attr interpolationmode  none
attr source  packetReceivedFromUpper
attr title  "packets received from higher layer, sum(packetBytes)"
scalar scenarioPRJP1.node[20].lo0.lo 	passedUpPk:count 	0
attr interpolationmode  none
attr source  packetSentToUpper
attr title  "packets passed to higher layer, count"
scalar scenarioPRJP1.node[20].lo0.lo 	passedUpPk:sum(packetBytes) 	0
attr interpolationmode  none
attr source  packetSentToUpper
attr title  "packets passed to higher layer, sum(packetBytes)"
scalar scenarioPRJP1.node[40].app 	"Total sent" 	2616
scalar scenarioPRJP1.node[40].app 	"Total received" 	534
scalar scenarioPRJP1.node[40].app 	"Total deleted" 	1
scalar scenarioPRJP1.node[40].app 	dropPk:count 	1
attr interpolationmode  none
attr source  dropPk
attr title  "packets dropped, count"
scalar scenarioPRJP1.node[40].app 	dropPk:sum(packetBytes) 	512
attr interpolationmode  none
attr source  dropPk
attr title  "packets dropped, sum(packetBytes)"
scalar scenarioPRJP1.node[40].app 	outOfOrderPk:count 	1
attr interpolationmode  none
attr source  outOfOrderPk
attr title  "packets received out of order, count"
scalar scenarioPRJP1.node[40].app 	outOfOrderPk:sum(packetBytes) 	512
attr interpolationmode  none
attr source  outOfOrderPk
attr title  "packets received out of order, sum(packetBytes)"
scalar scenarioPRJP1.node[40].app 	rcvdPk:count 	534
attr interpolationmode  none
attr source  rcvdPk
attr title  "packets received, count"
scalar scenarioPRJP1.node[40].app 	rcvdPk:sum(packetBytes) 	273408
attr interpolationmode  none
attr source  rcvdPk
attr title  "packets received, sum(packetBytes)"
statistic scenarioPRJP1.node[40].app 	endToEndDelay:histogram
field count 534
field mean 3.1590814651783
field stddev 3.2129163792403
field sum 1686.9495024052
field sqrsum 10831.280180515
field min 0.001271068378
field max 18.359836004723
attr interpolationmode  none
attr source  messageAge(rcvdPk)
attr title  "delay, histogram"
attr unit  s
bin	-INF	0
bin	-8.2403178596315	0
bin	-7.1411394083398	0
bin	-6.0419609570482	0
bin	-4.9427825057565	0
bin	-3.8436040544648	0
bin	-2.7444256031732	0
bin	-1.6452471518815	0
bin	-0.54606870058983	92
bin	0.55310975070183	121
bin	1.6522882019935	95
bin	2.7514666532852	76
bin	3.8506451045768	49
bin	4.9498235558685	26
bin	6.0490020071602	15
bin	7.1481804584518	14
bin	8.2473589097435	17
bin	9.3465373610352	10
bin	10.445715812327	4
bin	11.544894263619	3
bin	12.64407271491	2
bin	13.743251166202	2
bin	14.842429617494	3
bin	15.941608068785	2
bin	17.040786520077	1
bin	18.139964971369	2
bin	19.23914342266	0
bin	20.338321873952	0
bin	21.437500325244	0
bin	22.536678776535	0
bin	23.635857227827	0
bin	24.735035679118	0
scalar scenarioPRJP1.node[40].app 	sentPk:count 	2616
attr interpolationmode  none
attr source  sentPk
attr title  "packets sent, count"
scalar scenarioPRJP1.node[40].app 	sentPk:sum(packetBytes) 	1339392
attr interpolationmode  none
attr source  sentPk
attr title  "packets sent, sum(packetBytes)"
scalar scenarioPRJP1.node[40].udp 	droppedPkBadChecksum:count 	0
attr interpolationmode  none
attr title  "packets dropped (checksum error), count"
scalar scenarioPRJP1.node[40].udp 	droppedPkWrongPort:count 	0
attr interpolationmode  none
attr title  "packets dropped (wrong port), count"
scalar scenarioPRJP1.node[40].udp 	passedUpPk:count 	536
attr interpolationmode  none
attr title  "packets passed up, count"
scalar scenarioPRJP1.node[40].udp 	rcvdPk:count 	536
attr interpolationmode  none
attr source  rcvdPk
attr title  "packets received, count"
scalar scenarioPRJP1.node[40].udp 	rcvdPk:sum(packetBytes) 	278720
attr interpolationmode  none
attr source  rcvdPk
attr title  "packets received, sum(packetBytes)"
scalar scenarioPRJP1.node[40].udp 	sentPk:count 	2616
attr interpolationmode  none
attr source  sentPk
attr title  "packets sent, count"
scalar scenarioPRJP1.node[40].udp 	sentPk:sum(packetBytes) 	1360320
attr interpolationmode  none
attr source  sentPk
attr title  "packets sent, sum(packetBytes)"
scalar scenarioPRJP1.node[40].networkLayer.arp 	failedARPResolution:count 	130
attr title  "ARP failed resolutions, count"
scalar scenarioPRJP1.node[40].networkLayer.arp 	completedARPResolution:count 	5779
attr title  "ARP completed resolutions, count"
scalar scenarioPRJP1.node[40].networkLayer.arp 	initiatedARPResolution:count 	195
attr title  "ARP initiated resolutions, count"
scalar scenarioPRJP1.node[40].networkLayer.arp 	sentReply:count 	65
attr title  "ARP replies sent, count"
scalar scenarioPRJP1.node[40].networkLayer.arp 	sentReq:count 	503
attr title  "ARP request sent, count"
scalar scenarioPRJP1.node[40].mobility 	startTime 	4.9
scalar scenarioPRJP1.node[40].mobility 	totalTime 	945.1
scalar scenarioPRJP1.node[40].mobility 	stopTime 	950
scalar scenarioPRJP1.node[40].mobility 	minSpeed 	0
scalar scenarioPRJP1.node[40].mobility 	maxSpeed 	17.799522578976
scalar scenarioPRJP1.node[40].mobility 	totalDistance 	8987.1087675742
scalar scenarioPRJP1.node[40].mobility 	totalCO2Emission 	2447.214847199
scalar scenarioPRJP1.node[40].wlan.mgmt 	dataQueueLen:max 	100
attr interpolationmode  sample-hold
attr title  "data queue length, max"
scalar scenarioPRJP1.node[40].wlan.mgmt 	dataQueueLen:timeavg 	9.4781775225138
attr interpolationmode  sample-hold
attr title  "data queue length, timeavg"
scalar scenarioPRJP1.node[40].wlan.mgmt 	dropPkByQueue:count 	87
attr interpolationmode  none
attr source  dropPkByQueue
attr title  "packets dropped by queue, count"
scalar scenarioPRJP1.node[40].wlan.mgmt 	dropPkByQueue:sum(packetBytes) 	18264
attr interpolationmode  none
attr source  dropPkByQueue
attr title  "packets dropped by queue, sum(packetBytes)"
scalar scenarioPRJP1.node[40].wlan.mac 	"number of received packets" 	3110
scalar scenarioPRJP1.node[40].wlan.mac 	"number of collisions" 	716763
scalar scenarioPRJP1.node[40].wlan.mac 	"number of internal collisions" 	1
scalar scenarioPRJP1.node[40].wlan.mac 	"number of retry for AC 0" 	16144
scalar scenarioPRJP1.node[40].wlan.mac 	"number of retry for AC 1" 	12
scalar scenarioPRJP1.node[40].wlan.mac 	"number of retry for AC 2" 	0
scalar scenarioPRJP1.node[40].wlan.mac 	"number of retry for AC 3" 	0
scalar scenarioPRJP1.node[40].wlan.mac 	"sent and received bits" 	21371896
scalar scenarioPRJP1.node[40].wlan.mac 	"sent packet within AC 0" 	486
scalar scenarioPRJP1.node[40].wlan.mac 	"sent packet within AC 1" 	2
scalar scenarioPRJP1.node[40].wlan.mac 	"sent packet within AC 2" 	0
scalar scenarioPRJP1.node[40].wlan.mac 	"sent packet within AC 3" 	0
scalar scenarioPRJP1.node[40].wlan.mac 	"sent in TXOP " 	0
scalar scenarioPRJP1.node[40].wlan.mac 	"sentWithoutRetry AC 0" 	328
scalar scenarioPRJP1.node[40].wlan.mac 	"sentWithoutRetry AC 1" 	2
scalar scenarioPRJP1.node[40].wlan.mac 	"sentWithoutRetry AC 2" 	0
scalar scenarioPRJP1.node[40].wlan.mac 	"sentWithoutRetry AC 3" 	0
scalar scenarioPRJP1.node[40].wlan.mac 	"numGivenUp AC 0" 	2642
scalar scenarioPRJP1.node[40].wlan.mac 	"numGivenUp AC 1" 	2
scalar scenarioPRJP1.node[40].wlan.mac 	"numGivenUp AC 2" 	0
scalar scenarioPRJP1.node[40].wlan.mac 	"numGivenUp AC 3" 	0
scalar scenarioPRJP1.node[40].wlan.mac 	"numDropped AC 0" 	3239
scalar scenarioPRJP1.node[40].wlan.mac 	"numDropped AC 1" 	0
scalar scenarioPRJP1.node[40].wlan.mac 	"numDropped AC 2" 	0
scalar scenarioPRJP1.node[40].wlan.mac 	"numDropped AC 3" 	0
scalar scenarioPRJP1.node[40].wlan.mac 	rcvdPkFromLL:count 	1052151
attr interpolationmode  none
attr source  packetReceivedFromLower
attr title  "packets received from lower layer, count"
scalar scenarioPRJP1.node[40].wlan.mac 	rcvdPkFromLL:sum(packetBytes) 	356769111
attr interpolationmode  none
attr source  packetReceivedFromLower
attr title  "packets received from lower layer, sum(packetBytes)"
scalar scenarioPRJP1.node[40].wlan.mac 	sentDownPk:count 	35291
attr interpolationmode  none
attr source  packetSentToLower
attr title  "packets sent to lower layer, count"
scalar scenarioPRJP1.node[40].wlan.mac 	sentDownPk:sum(packetBytes) 	12611126
attr interpolationmode  none
attr source  packetSentToLower
attr title  "packets sent to lower layer, sum(packetBytes)"
scalar scenarioPRJP1.node[40].wlan.mac 	rcvdPkFromHL:count 	19292
attr interpolationmode  none
attr source  packetReceivedFromUpper
attr title  "packets received from higher layer, count"
scalar scenarioPRJP1.node[40].wlan.mac 	rcvdPkFromHL:sum(packetBytes) 	4854616
attr interpolationmode  none
attr source  packetReceivedFromUpper
attr title  "packets received from higher layer, sum(packetBytes)"
scalar scenarioPRJP1.node[40].wlan.mac 	passedUpPk:count 	140511
attr interpolationmode  none
attr source  packetSentToUpper
attr title  "packets passed to higher layer, count"
scalar scenarioPRJP1.node[40].wlan.mac 	passedUpPk:sum(packetBytes) 	25321245
attr interpolationmode  none
attr source  packetSentToUpper
attr title  "packets passed to higher layer, sum(packetBytes)"
statistic scenarioPRJP1.node[40].wlan.radio 	radioChannel:histogram
field count 1
field mean 3
field stddev -nan
field sum 3
field sqrsum 9
field min 3
field max 3
attr interpolationmode  sample-hold
attr source  radioChannelChanged
attr title  "Radio channel, histogram"
bin	-INF	0
bin	2	0
bin	3	1
bin	4	0
scalar scenarioPRJP1.node[40].wlan.radio 	transmissionState:count 	141164
attr interpolationmode  sample-hold
attr source  transmissionStateChanged
attr title  "Radio transmission state, count"
scalar scenarioPRJP1.node[40].wlan.radio 	receptionState:count 	2417831
attr interpolationmode  sample-hold
attr source  receptionStateChanged
attr title  "Radio reception state, count"
scalar scenarioPRJP1.node[40].wlan.radio 	radioMode:count 	70584
attr interpolationmode  sample-hold
attr source  radioModeChanged
attr title  "Radio mode, count"
statistic scenarioPRJP1.node[40].wlan.radio 	symbolErrorRate:histogram
field count 0
field mean -nan
field stddev -nan
field sum 0
field sqrsum 0
field min -nan
field max -nan
attr source  symbolErrorRate
attr title  "Symbol error rate, histogram"
bin	-INF	0
bin	-0.5	0
bin	-0.46666666666667	0
bin	-0.43333333333333	0
bin	-0.4	0
bin	-0.36666666666667	0
bin	-0.33333333333333	0
bin	-0.3	0
bin	-0.26666666666667	0
bin	-0.23333333333333	0
bin	-0.2	0
bin	-0.16666666666667	0
bin	-0.13333333333333	0
bin	-0.1	0
bin	-0.066666666666667	0
bin	-0.033333333333333	0
bin	0	0
bin	0.033333333333333	0
bin	0.066666666666667	0
bin	0.1	0
bin	0.13333333333333	0
bin	0.16666666666667	0
bin	0.2	0
bin	0.23333333333333	0
bin	0.26666666666667	0
bin	0.3	0
bin	0.33333333333333	0
bin	0.36666666666667	0
bin	0.4	0
bin	0.43333333333333	0
bin	0.46666666666667	0
bin	0.5	0
statistic scenarioPRJP1.node[40].wlan.radio 	bitErrorRate:histogram
field count 0
field mean -nan
field stddev -nan
field sum 0
field sqrsum 0
field min -nan
field max -nan
attr source  bitErrorRate
attr title  "Bit error rate, histogram"
bin	-INF	0
bin	-0.5	0
bin	-0.46666666666667	0
bin	-0.43333333333333	0
bin	-0.4	0
bin	-0.36666666666667	0
bin	-0.33333333333333	0
bin	-0.3	0
bin	-0.26666666666667	0
bin	-0.23333333333333	0
bin	-0.2	0
bin	-0.16666666666667	0
bin	-0.13333333333333	0
bin	-0.1	0
bin	-0.066666666666667	0
bin	-0.033333333333333	0
bin	0	0
bin	0.033333333333333	0
bin	0.066666666666667	0
bin	0.1	0
bin	0.13333333333333	0
bin	0.16666666666667	0
bin	0.2	0
bin	0.23333333333333	0
bin	0.26666666666667	0
bin	0.3	0
bin	0.33333333333333	0
bin	0.36666666666667	0
bin	0.4	0
bin	0.43333333333333	0
bin	0.46666666666667	0
bin	0.5	0
statistic scenarioPRJP1.node[40].wlan.radio 	packetErrorRate:histogram
field count 1052151
field mean 0.65305213671388
field stddev 0.46797362583574
field sum 687109.45869565
field sqrsum 679138.42888538
field min 0
field max 1
attr source  packetErrorRate
attr title  "Packet error rate, histogram"
bin	-INF	0
bin	-0.5	0
bin	-0.43333333333333	0
bin	-0.36666666666667	0
bin	-0.3	0
bin	-0.23333333333333	0
bin	-0.16666666666667	0
bin	-0.1	0
bin	-0.033333333333333	333043
bin	0.033333333333333	12517
bin	0.1	6334
bin	0.16666666666667	4321
bin	0.23333333333333	3482
bin	0.3	2887
bin	0.36666666666667	2502
bin	0.43333333333333	2357
bin	0.5	2168
bin	0.56666666666667	2109
bin	0.63333333333333	2070
bin	0.7	2232
bin	0.76666666666667	2411
bin	0.83333333333333	2900
bin	0.9	4576
bin	0.96666666666667	666242
bin	1.0333333333333	0
bin	1.1	0
bin	1.1666666666667	0
bin	1.2333333333333	0
bin	1.3	0
bin	1.3666666666667	0
bin	1.4333333333333	0
bin	1.5	0
statistic scenarioPRJP1.node[40].wlan.radio 	minSNIR:histogram
field count 1052151
field mean 1327.2752150402
field stddev 66426.2256002
field sum 1396493944.7797
field sqrsum 4.644405905076e+15
field min 3.201552133642e-06
field max 21510023.727675
attr source  minSNIR
attr title  "Min SNIR, histogram"
bin	-INF	0
bin	-140307.700719	0
bin	-121600.00726619	0
bin	-102892.31381338	0
bin	-84184.620360572	0
bin	-65476.926907763	0
bin	-46769.233454953	0
bin	-28061.540002144	0
bin	-9353.8465493351	1046221
bin	9353.8469034741	3190
bin	28061.540356283	818
bin	46769.233809092	373
bin	65476.927261902	225
bin	84184.620714711	151
bin	102892.31416752	110
bin	121600.00762033	91
bin	140307.70107314	66
bin	159015.39452595	57
bin	177723.08797876	49
bin	196430.78143157	29
bin	215138.47488438	49
bin	233846.16833718	23
bin	252553.86178999	24
bin	271261.5552428	28
bin	289969.24869561	20
bin	308676.94214842	23
bin	327384.63560123	19
bin	346092.32905404	21
bin	364800.02250685	13
bin	383507.71595966	15
bin	402215.40941247	24
bin	420923.10286528	512
scalar scenarioPRJP1.node[40].lo0.lo 	droppedPkBitError:count 	0
attr interpolationmode  none
attr source  dropPkBitError
attr title  "packets dropped/bit error, count"
scalar scenarioPRJP1.node[40].lo0.lo 	droppedPkBitError:sum(packetBytes) 	0
attr interpolationmode  none
attr source  dropPkBitError
attr title  "packets dropped/bit error, sum(packetBytes)"
scalar scenarioPRJP1.node[40].lo0.lo 	rcvdPkFromHL:count 	0
attr interpolationmode  none
attr source  packetReceivedFromUpper
attr title  "packets received from higher layer, count"
scalar scenarioPRJP1.node[40].lo0.lo 	rcvdPkFromHL:sum(packetBytes) 	0
attr interpolationmode  none
attr source  packetReceivedFromUpper
attr title  "packets received from higher layer, sum(packetBytes)"
scalar scenarioPRJP1.node[40].lo0.lo 	passedUpPk:count 	0
attr interpolationmode  none
attr source  packetSentToUpper
attr title  "packets passed to higher layer, count"
scalar scenarioPRJP1.node[40].lo0.lo 	passedUpPk:sum(packetBytes) 	0
attr interpolationmode  none
attr source  packetSentToUpper
attr title  "packets passed to higher layer, sum(packetBytes)"
scalar scenarioPRJP1.node[60].app 	"Total sent" 	2611
scalar scenarioPRJP1.node[60].app 	"Total received" 	449
scalar scenarioPRJP1.node[60].app 	"Total deleted" 	0
scalar scenarioPRJP1.node[60].app 	dropPk:count 	0
attr interpolationmode  none
attr source  dropPk
attr title  "packets dropped, count"
scalar scenarioPRJP1.node[60].app 	dropPk:sum(packetBytes) 	0
attr interpolationmode  none
attr source  dropPk
attr title  "packets dropped, sum(packetBytes)"
scalar scenarioPRJP1.node[60].app 	outOfOrderPk:count 	1
attr interpolationmode  none
attr source  outOfOrderPk
attr title  "packets received out of order, count"
scalar scenarioPRJP1.node[60].app 	outOfOrderPk:sum(packetBytes) 	512
attr interpolationmode  none
attr source  outOfOrderPk
attr title  "packets received out of order, sum(packetBytes)"
scalar scenarioPRJP1.node[60].app 	rcvdPk:count 	449
attr interpolationmode  none
attr source  rcvdPk
attr title  "packets received, count"
scalar scenarioPRJP1.node[60].app 	rcvdPk:sum(packetBytes) 	229888
attr interpolationmode  none
attr source  rcvdPk
attr title  "packets received, sum(packetBytes)"
statistic scenarioPRJP1.node[60].app 	endToEndDelay:histogram
field count 449
field mean 2.8369613587072
field stddev 2.7538962398882
field sum 1273.7956500595
field sqrsum 7011.3161741397
field min 0.001477463382
field max 15.680345712923
attr interpolationmode  none
attr source  messageAge(rcvdPk)
attr title  "delay, histogram"
attr unit  s
bin	-INF	0
bin	-6.594726153843	0
bin	-5.7152045311562	0
bin	-4.8356829084694	0
bin	-3.9561612857826	0
bin	-3.0766396630958	0
bin	-2.197118040409	0
bin	-1.3175964177222	0
bin	-0.4380747950354	73
bin	0.4414468276514	84
bin	1.3209684503382	76
bin	2.200490073025	64
bin	3.0800116957118	39
bin	3.9595333183986	32
bin	4.8390549410854	26
bin	5.7185765637722	13
bin	6.598098186459	8
bin	7.4776198091458	13
bin	8.3571414318326	5
bin	9.2366630545194	4
bin	10.116184677206	3
bin	10.995706299893	2
bin	11.87522792258	1
bin	12.754749545267	2
bin	13.634271167953	2
bin	14.51379279064	1
bin	15.393314413327	1
bin	16.272836036014	0
bin	17.152357658701	0
bin	18.031879281387	0
bin	18.911400904074	0
bin	19.790922526761	0
scalar scenarioPRJP1.node[60].app 	sentPk:count 	2611
attr interpolationmode  none
attr source  sentPk
attr title  "packets sent, count"
scalar scenarioPRJP1.node[60].app 	sentPk:sum(packetBytes) 	1336832
attr interpolationmode  none
attr source  sentPk
attr title  "packets sent, sum(packetBytes)"
scalar scenarioPRJP1.node[60].udp 	droppedPkBadChecksum:count 	0
attr interpolationmode  none
attr title  "packets dropped (checksum error), count"
scalar scenarioPRJP1.node[60].udp 	droppedPkWrongPort:count 	0
attr interpolationmode  none
attr title  "packets dropped (wrong port), count"
scalar scenarioPRJP1.node[60].udp 	passedUpPk:count 	450
attr interpolationmode  none
attr title  "packets passed up, count"
scalar scenarioPRJP1.node[60].udp 	rcvdPk:count 	450
attr interpolationmode  none
attr source  rcvdPk
attr title  "packets received, count"
scalar scenarioPRJP1.node[60].udp 	rcvdPk:sum(packetBytes) 	234000
attr interpolationmode  none
attr source  rcvdPk
attr title  "packets received, sum(packetBytes)"
scalar scenarioPRJP1.node[60].udp 	sentPk:count 	2611
attr interpolationmode  none
attr source  sentPk
attr title  "packets sent, count"
scalar scenarioPRJP1.node[60].udp 	sentPk:sum(packetBytes) 	1357720
attr interpolationmode  none
attr source  sentPk
attr title  "packets sent, sum(packetBytes)"
scalar scenarioPRJP1.node[60].networkLayer.arp 	failedARPResolution:count 	142
attr title  "ARP failed resolutions, count"
scalar scenarioPRJP1.node[60].networkLayer.arp 	completedARPResolution:count 	5771
attr title  "ARP completed resolutions, count"
scalar scenarioPRJP1.node[60].networkLayer.arp 	initiatedARPResolution:count 	206
attr title  "ARP initiated resolutions, count"
scalar scenarioPRJP1.node[60].networkLayer.arp 	sentReply:count 	120
attr title  "ARP replies sent, count"
scalar scenarioPRJP1.node[60].networkLayer.arp 	sentReq:count 	536
attr title  "ARP request sent, count"
scalar scenarioPRJP1.node[60].mobility 	startTime 	7.3
scalar scenarioPRJP1.node[60].mobility 	totalTime 	942.7
scalar scenarioPRJP1.node[60].mobility 	stopTime 	950
scalar scenarioPRJP1.node[60].mobility 	minSpeed 	2.475598877175e-13
scalar scenarioPRJP1.node[60].mobility 	maxSpeed 	16.114990932227
scalar scenarioPRJP1.node[60].mobility 	totalDistance 	9293.0189420798
scalar scenarioPRJP1.node[60].mobility 	totalCO2Emission 	2292.9863158898
scalar scenarioPRJP1.node[60].wlan.mgmt 	dataQueueLen:max 	100
attr interpolationmode  sample-hold
attr title  "data queue length, max"
scalar scenarioPRJP1.node[60].wlan.mgmt 	dataQueueLen:timeavg 	14.343292877809
attr interpolationmode  sample-hold
attr title  "data queue length, timeavg"
scalar scenarioPRJP1.node[60].wlan.mgmt 	dropPkByQueue:count 	498
attr interpolationmode  none
attr source  dropPkByQueue
attr title  "packets dropped by queue, count"
scalar scenarioPRJP1.node[60].wlan.mgmt 	dropPkByQueue:sum(packetBytes) 	122965
attr interpolationmode  none
attr source  dropPkByQueue
attr title  "packets dropped by queue, sum(packetBytes)"
scalar scenarioPRJP1.node[60].wlan.mac 	"number of received packets" 	3105
scalar scenarioPRJP1.node[60].wlan.mac 	"number of collisions" 	723957
scalar scenarioPRJP1.node[60].wlan.mac 	"number of internal collisions" 	0
scalar scenarioPRJP1.node[60].wlan.mac 	"number of retry for AC 0" 	17216
scalar scenarioPRJP1.node[60].wlan.mac 	"number of retry for AC 1" 	6
scalar scenarioPRJP1.node[60].wlan.mac 	"number of retry for AC 2" 	0
scalar scenarioPRJP1.node[60].wlan.mac 	"number of retry for AC 3" 	0
scalar scenarioPRJP1.node[60].wlan.mac 	"sent and received bits" 	20901528
scalar scenarioPRJP1.node[60].wlan.mac 	"sent packet within AC 0" 	407
scalar scenarioPRJP1.node[60].wlan.mac 	"sent packet within AC 1" 	4
scalar scenarioPRJP1.node[60].wlan.mac 	"sent packet within AC 2" 	0
scalar scenarioPRJP1.node[60].wlan.mac 	"sent packet within AC 3" 	0
scalar scenarioPRJP1.node[60].wlan.mac 	"sent in TXOP " 	0
scalar scenarioPRJP1.node[60].wlan.mac 	"sentWithoutRetry AC 0" 	290
scalar scenarioPRJP1.node[60].wlan.mac 	"sentWithoutRetry AC 1" 	4
scalar scenarioPRJP1.node[60].wlan.mac 	"sentWithoutRetry AC 2" 	0
scalar scenarioPRJP1.node[60].wlan.mac 	"sentWithoutRetry AC 3" 	0
scalar scenarioPRJP1.node[60].wlan.mac 	"numGivenUp AC 0" 	2830
scalar scenarioPRJP1.node[60].wlan.mac 	"numGivenUp AC 1" 	1
scalar scenarioPRJP1.node[60].wlan.mac 	"numGivenUp AC 2" 	0
scalar scenarioPRJP1.node[60].wlan.mac 	"numGivenUp AC 3" 	0
scalar scenarioPRJP1.node[60].wlan.mac 	"numDropped AC 0" 	2729
scalar scenarioPRJP1.node[60].wlan.mac 	"numDropped AC 1" 	0
scalar scenarioPRJP1.node[60].wlan.mac 	"numDropped AC 2" 	0
scalar scenarioPRJP1.node[60].wlan.mac 	"numDropped AC 3" 	0
scalar scenarioPRJP1.node[60].wlan.mac 	rcvdPkFromLL:count 	1041124
attr interpolationmode  none
attr source  packetReceivedFromLower
attr title  "packets received from lower layer, count"
scalar scenarioPRJP1.node[60].wlan.mac 	rcvdPkFromLL:sum(packetBytes) 	353584714
attr interpolationmode  none
attr source  packetReceivedFromLower
attr title  "packets received from lower layer, sum(packetBytes)"
scalar scenarioPRJP1.node[60].wlan.mac 	sentDownPk:count 	36436
attr interpolationmode  none
attr source  packetSentToLower
attr title  "packets sent to lower layer, count"
scalar scenarioPRJP1.node[60].wlan.mac 	sentDownPk:sum(packetBytes) 	13109369
attr interpolationmode  none
attr source  packetSentToLower
attr title  "packets sent to lower layer, sum(packetBytes)"
scalar scenarioPRJP1.node[60].wlan.mac 	rcvdPkFromHL:count 	18888
attr interpolationmode  none
attr source  packetReceivedFromUpper
attr title  "packets received from higher layer, count"
scalar scenarioPRJP1.node[60].wlan.mac 	rcvdPkFromHL:sum(packetBytes) 	4749558
attr interpolationmode  none
attr source  packetReceivedFromUpper
attr title  "packets received from higher layer, sum(packetBytes)"
scalar scenarioPRJP1.node[60].wlan.mac 	passedUpPk:count 	133784
attr interpolationmode  none
attr source  packetSentToUpper
attr title  "packets passed to higher layer, count"
scalar scenarioPRJP1.node[60].wlan.mac 	passedUpPk:sum(packetBytes) 	24057247
attr interpolationmode  none
attr source  packetSentToUpper
attr title  "packets passed to higher layer, sum(packetBytes)"
statistic scenarioPRJP1.node[60].wlan.radio 	radioChannel:histogram
field count 1
field mean 3
field stddev -nan
field sum 3
field sqrsum 9
field min 3
field max 3
attr interpolationmode  sample-hold
attr source  radioChannelChanged
attr title  "Radio channel, histogram"
bin	-INF	0
bin	2	0
bin	3	1
bin	4	0
scalar scenarioPRJP1.node[60].wlan.radio 	transmissionState:count 	145744
attr interpolationmode  sample-hold
attr source  transmissionStateChanged
attr title  "Radio transmission state, count"
scalar scenarioPRJP1.node[60].wlan.radio 	receptionState:count 	2394500
attr interpolationmode  sample-hold
attr source  receptionStateChanged
attr title  "Radio reception state, count"
scalar scenarioPRJP1.node[60].wlan.radio 	radioMode:count 	72874
attr interpolationmode  sample-hold
attr source  radioModeChanged
attr title  "Radio mode, count"
statistic scenarioPRJP1.node[60].wlan.radio 	symbolErrorRate:histogram
field count 0
field mean -nan
field stddev -nan
field sum 0
field sqrsum 0
field min -nan
field max -nan
attr source  symbolErrorRate
attr title  "Symbol error rate, histogram"
bin	-INF	0
bin	-0.5	0
bin	-0.46666666666667	0
bin	-0.43333333333333	0
bin	-0.4	0
bin	-0.36666666666667	0
bin	-0.33333333333333	0
bin	-0.3	0
bin	-0.26666666666667	0
bin	-0.23333333333333	0
bin	-0.2	0
bin	-0.16666666666667	0
bin	-0.13333333333333	0
bin	-0.1	0
bin	-0.066666666666667	0
bin	-0.033333333333333	0
bin	0	0
bin	0.033333333333333	0
bin	0.066666666666667	0
bin	0.1	0
bin	0.13333333333333	0
bin	0.16666666666667	0
bin	0.2	0
bin	0.23333333333333	0
bin	0.26666666666667	0
bin	0.3	0
bin	0.33333333333333	0
bin	0.36666666666667	0
bin	0.4	0
bin	0.43333333333333	0
bin	0.46666666666667	0
bin	0.5	0
statistic scenarioPRJP1.node[60].wlan.radio 	bitErrorRate:histogram
field count 0
field mean -nan
field stddev -nan
field sum 0
field sqrsum 0
field min -nan
field max -nan
attr source  bitErrorRate
attr title  "Bit error rate, histogram"
bin	-INF	0
bin	-0.5	0
bin	-0.46666666666667	0
bin	-0.43333333333333	0
bin	-0.4	0
bin	-0.36666666666667	0
bin	-0.33333333333333	0
bin	-0.3	0
bin	-0.26666666666667	0
bin	-0.23333333333333	0
bin	-0.2	0
bin	-0.16666666666667	0
bin	-0.13333333333333	0
bin	-0.1	0
bin	-0.066666666666667	0
bin	-0.033333333333333	0
bin	0	0
bin	0.033333333333333	0
bin	0.066666666666667	0
bin	0.1	0
bin	0.13333333333333	0
bin	0.16666666666667	0
bin	0.2	0
bin	0.23333333333333	0
bin	0.26666666666667	0
bin	0.3	0
bin	0.33333333333333	0
bin	0.36666666666667	0
bin	0.4	0
bin	0.43333333333333	0
bin	0.46666666666667	0
bin	0.5	0
statistic scenarioPRJP1.node[60].wlan.radio 	packetErrorRate:histogram
field count 1041124
field mean 0.66647339321741
field stddev 0.46319273714356
field sum 693881.44504008
field sqrsum 685823.87023439
field min 0
field max 1
attr source  packetErrorRate
attr title  "Packet error rate, histogram"
bin	-INF	0
bin	-0.033118709977816	0
bin	-0.028702881980774	0
bin	-0.024287053983732	0
bin	-0.01987122598669	0
bin	-0.015455397989648	0
bin	-0.011039569992605	0
bin	-0.0066237419955632	0
bin	-0.0022079139985211	287125
bin	0.0022079139985211	10721
bin	0.0066237419955633	5227
bin	0.011039569992605	3524
bin	0.015455397989648	2703
bin	0.01987122598669	2185
bin	0.024287053983732	1856
bin	0.028702881980774	1568
bin	0.033118709977816	1421
bin	0.037534537974858	1245
bin	0.041950365971901	1169
bin	0.046366193968943	1072
bin	0.050782021965985	898
bin	0.055197849963027	895
bin	0.059613677960069	867
bin	0.064029505957111	755
bin	0.068445333954154	700
bin	0.072861161951196	715
bin	0.077276989948238	646
bin	0.08169281794528	592
bin	0.086108645942322	560
bin	0.090524473939364	557
bin	0.094940301936407	564
bin	0.099356129933449	713559
statistic scenarioPRJP1.node[60].wlan.radio 	minSNIR:histogram
field count 1041124
field mean 915.48286957653
field stddev 59591.471876443
field sum 953131187.105
field sqrsum 3.6980497706646e+15
field min 4.9122374048273e-06
field max 17078880.327755
attr source  minSNIR
attr title  "Min SNIR, histogram"
bin	-INF	0
bin	-138430.38331887	0
bin	-119972.72096737	0
bin	-101515.05861588	0
bin	-83057.39626439	0
bin	-64599.733912897	0
bin	-46142.071561405	0
bin	-27684.409209912	0
bin	-9226.7468584195	1036957
bin	9230.915493073	2417
bin	27688.577844566	510
bin	46146.240196058	248
bin	64603.902547551	144
bin	83061.564899043	113
bin	101519.22725054	78
bin	119976.88960203	52
bin	138434.55195352	43
bin	156892.21430501	31
bin	175349.87665651	25
bin	193807.539008	33
bin	212265.20135949	26
bin	230722.86371098	17
bin	249180.52606248	18
bin	267638.18841397	15
bin	286095.85076546	13
bin	304553.51311695	14
bin	323011.17546845	13
bin	341468.83781994	13
bin	359926.50017143	10
bin	378384.16252292	11
bin	396841.82487442	7
bin	415299.48722591	316
scalar scenarioPRJP1.node[60].lo0.lo 	droppedPkBitError:count 	0
attr interpolationmode  none
attr source  dropPkBitError
attr title  "packets dropped/bit error, count"
scalar scenarioPRJP1.node[60].lo0.lo 	droppedPkBitError:sum(packetBytes) 	0
attr interpolationmode  none
attr source  dropPkBitError
attr title  "packets dropped/bit error, sum(packetBytes)"
scalar scenarioPRJP1.node[60].lo0.lo 	rcvdPkFromHL:count 	0
attr interpolationmode  none
attr source  packetReceivedFromUpper
attr title  "packets received from higher layer, count"
scalar scenarioPRJP1.node[60].lo0.lo 	rcvdPkFromHL:sum(packetBytes) 	0
attr interpolationmode  none
attr source  packetReceivedFromUpper
attr title  "packets received from higher layer, sum(packetBytes)"
scalar scenarioPRJP1.node[60].lo0.lo 	passedUpPk:count 	0
attr interpolationmode  none
attr source  packetSentToUpper
attr title  "packets passed to higher layer, count"
scalar scenarioPRJP1.node[60].lo0.lo 	passedUpPk:sum(packetBytes) 	0
attr interpolationmode  none
attr source  packetSentToUpper
attr title  "packets passed to higher layer, sum(packetBytes)"
scalar scenarioPRJP1.node[1].app 	"Total sent" 	2626
scalar scenarioPRJP1.node[1].app 	"Total received" 	443
scalar scenarioPRJP1.node[1].app 	"Total deleted" 	1
scalar scenarioPRJP1.node[1].app 	dropPk:count 	1
attr interpolationmode  none
attr source  dropPk
attr title  "packets dropped, count"
scalar scenarioPRJP1.node[1].app 	dropPk:sum(packetBytes) 	512
attr interpolationmode  none
attr source  dropPk
attr title  "packets dropped, sum(packetBytes)"
scalar scenarioPRJP1.node[1].app 	outOfOrderPk:count 	0
attr interpolationmode  none
attr source  outOfOrderPk
attr title  "packets received out of order, count"
scalar scenarioPRJP1.node[1].app 	outOfOrderPk:sum(packetBytes) 	0
attr interpolationmode  none
attr source  outOfOrderPk
attr title  "packets received out of order, sum(packetBytes)"
scalar scenarioPRJP1.node[1].app 	rcvdPk:count 	443
attr interpolationmode  none
attr source  rcvdPk
attr title  "packets received, count"
scalar scenarioPRJP1.node[1].app 	rcvdPk:sum(packetBytes) 	226816
attr interpolationmode  none
attr source  rcvdPk
attr title  "packets received, sum(packetBytes)"
statistic scenarioPRJP1.node[1].app 	endToEndDelay:histogram
field count 443
field mean 2.9523864110523
field stddev 3.1376181720174
field sum 1307.9071800962
field sqrsum 8212.7817101048
field min 0.000958092746
field max 16.027389230376
attr interpolationmode  none
attr source  messageAge(rcvdPk)
attr title  "delay, histogram"
attr unit  s
bin	-INF	0
bin	-8.007710151039	0
bin	-6.939483511865	0
bin	-5.871256872691	0
bin	-4.803030233517	0
bin	-3.734803594343	0
bin	-2.666576955169	0
bin	-1.598350315995	0
bin	-0.530123676821	98
bin	0.538102962353	106
bin	1.606329601527	61
bin	2.674556240701	48
bin	3.742782879875	40
bin	4.811009519049	23
bin	5.879236158223	20
bin	6.947462797397	16
bin	8.015689436571	6
bin	9.083916075745	3
bin	10.152142714919	8
bin	11.220369354093	4
bin	12.288595993267	1
bin	13.356822632441	5
bin	14.425049271615	2
bin	15.493275910789	2
bin	16.561502549963	0
bin	17.629729189137	0
bin	18.697955828311	0
bin	19.766182467485	0
bin	20.834409106659	0
bin	21.902635745833	0
bin	22.970862385007	0
bin	24.039089024181	0
scalar scenarioPRJP1.node[1].app 	sentPk:count 	2626
attr interpolationmode  none
attr source  sentPk
attr title  "packets sent, count"
scalar scenarioPRJP1.node[1].app 	sentPk:sum(packetBytes) 	1344512
attr interpolationmode  none
attr source  sentPk
attr title  "packets sent, sum(packetBytes)"
scalar scenarioPRJP1.node[1].udp 	droppedPkBadChecksum:count 	0
attr interpolationmode  none
attr title  "packets dropped (checksum error), count"
scalar scenarioPRJP1.node[1].udp 	droppedPkWrongPort:count 	0
attr interpolationmode  none
attr title  "packets dropped (wrong port), count"
scalar scenarioPRJP1.node[1].udp 	passedUpPk:count 	444
attr interpolationmode  none
attr title  "packets passed up, count"
scalar scenarioPRJP1.node[1].udp 	rcvdPk:count 	444
attr interpolationmode  none
attr source  rcvdPk
attr title  "packets received, count"
scalar scenarioPRJP1.node[1].udp 	rcvdPk:sum(packetBytes) 	230880
attr interpolationmode  none
attr source  rcvdPk
attr title  "packets received, sum(packetBytes)"
scalar scenarioPRJP1.node[1].udp 	sentPk:count 	2626
attr interpolationmode  none
attr source  sentPk
attr title  "packets sent, count"
scalar scenarioPRJP1.node[1].udp 	sentPk:sum(packetBytes) 	1365520
attr interpolationmode  none
attr source  sentPk
attr title  "packets sent, sum(packetBytes)"
scalar scenarioPRJP1.node[1].networkLayer.arp 	failedARPResolution:count 	175
attr title  "ARP failed resolutions, count"
scalar scenarioPRJP1.node[1].networkLayer.arp 	completedARPResolution:count 	5651
attr title  "ARP completed resolutions, count"
scalar scenarioPRJP1.node[1].networkLayer.arp 	initiatedARPResolution:count 	247
attr title  "ARP initiated resolutions, count"
scalar scenarioPRJP1.node[1].networkLayer.arp 	sentReply:count 	71
attr title  "ARP replies sent, count"
scalar scenarioPRJP1.node[1].networkLayer.arp 	sentReq:count 	645
attr title  "ARP request sent, count"
scalar scenarioPRJP1.node[1].mobility 	startTime 	0.1
scalar scenarioPRJP1.node[1].mobility 	totalTime 	949.9
scalar scenarioPRJP1.node[1].mobility 	stopTime 	950
scalar scenarioPRJP1.node[1].mobility 	minSpeed 	2.4755322810494e-13
scalar scenarioPRJP1.node[1].mobility 	maxSpeed 	17.690334827398
scalar scenarioPRJP1.node[1].mobility 	totalDistance 	8599.2984935659
scalar scenarioPRJP1.node[1].mobility 	totalCO2Emission 	2455.0172167122
scalar scenarioPRJP1.node[1].wlan.mgmt 	dataQueueLen:max 	100
attr interpolationmode  sample-hold
attr title  "data queue length, max"
scalar scenarioPRJP1.node[1].wlan.mgmt 	dataQueueLen:timeavg 	11.374650994192
attr interpolationmode  sample-hold
attr title  "data queue length, timeavg"
scalar scenarioPRJP1.node[1].wlan.mgmt 	dropPkByQueue:count 	405
attr interpolationmode  none
attr source  dropPkByQueue
attr title  "packets dropped by queue, count"
scalar scenarioPRJP1.node[1].wlan.mgmt 	dropPkByQueue:sum(packetBytes) 	94390
attr interpolationmode  none
attr source  dropPkByQueue
attr title  "packets dropped by queue, sum(packetBytes)"
scalar scenarioPRJP1.node[1].wlan.mac 	"number of received packets" 	3475
scalar scenarioPRJP1.node[1].wlan.mac 	"number of collisions" 	713433
scalar scenarioPRJP1.node[1].wlan.mac 	"number of internal collisions" 	1
scalar scenarioPRJP1.node[1].wlan.mac 	"number of retry for AC 0" 	17812
scalar scenarioPRJP1.node[1].wlan.mac 	"number of retry for AC 1" 	13
scalar scenarioPRJP1.node[1].wlan.mac 	"number of retry for AC 2" 	0
scalar scenarioPRJP1.node[1].wlan.mac 	"number of retry for AC 3" 	0
scalar scenarioPRJP1.node[1].wlan.mac 	"sent and received bits" 	22523520
scalar scenarioPRJP1.node[1].wlan.mac 	"sent packet within AC 0" 	523
scalar scenarioPRJP1.node[1].wlan.mac 	"sent packet within AC 1" 	3
scalar scenarioPRJP1.node[1].wlan.mac 	"sent packet within AC 2" 	0
scalar scenarioPRJP1.node[1].wlan.mac 	"sent packet within AC 3" 	0
scalar scenarioPRJP1.node[1].wlan.mac 	"sent in TXOP " 	0
scalar scenarioPRJP1.node[1].wlan.mac 	"sentWithoutRetry AC 0" 	361
scalar scenarioPRJP1.node[1].wlan.mac 	"sentWithoutRetry AC 1" 	2
scalar scenarioPRJP1.node[1].wlan.mac 	"sentWithoutRetry AC 2" 	0
scalar scenarioPRJP1.node[1].wlan.mac 	"sentWithoutRetry AC 3" 	0
scalar scenarioPRJP1.node[1].wlan.mac 	"numGivenUp AC 0" 	2921
scalar scenarioPRJP1.node[1].wlan.mac 	"numGivenUp AC 1" 	2
scalar scenarioPRJP1.node[1].wlan.mac 	"numGivenUp AC 2" 	0
scalar scenarioPRJP1.node[1].wlan.mac 	"numGivenUp AC 3" 	0
scalar scenarioPRJP1.node[1].wlan.mac 	"numDropped AC 0" 	2286
scalar scenarioPRJP1.node[1].wlan.mac 	"numDropped AC 1" 	0
scalar scenarioPRJP1.node[1].wlan.mac 	"numDropped AC 2" 	0
scalar scenarioPRJP1.node[1].wlan.mac 	"numDropped AC 3" 	0
scalar scenarioPRJP1.node[1].wlan.mac 	rcvdPkFromLL:count 	1036933
attr interpolationmode  none
attr source  packetReceivedFromLower
attr title  "packets received from lower layer, count"
scalar scenarioPRJP1.node[1].wlan.mac 	rcvdPkFromLL:sum(packetBytes) 	351885624
attr interpolationmode  none
attr source  packetReceivedFromLower
attr title  "packets received from lower layer, sum(packetBytes)"
scalar scenarioPRJP1.node[1].wlan.mac 	sentDownPk:count 	38323
attr interpolationmode  none
attr source  packetSentToLower
attr title  "packets sent to lower layer, count"
scalar scenarioPRJP1.node[1].wlan.mac 	sentDownPk:sum(packetBytes) 	13883883
attr interpolationmode  none
attr source  packetSentToLower
attr title  "packets sent to lower layer, sum(packetBytes)"
scalar scenarioPRJP1.node[1].wlan.mac 	rcvdPkFromHL:count 	19345
attr interpolationmode  none
attr source  packetReceivedFromUpper
attr title  "packets received from higher layer, count"
scalar scenarioPRJP1.node[1].wlan.mac 	rcvdPkFromHL:sum(packetBytes) 	4920326
attr interpolationmode  none
attr source  packetReceivedFromUpper
attr title  "packets received from higher layer, sum(packetBytes)"
scalar scenarioPRJP1.node[1].wlan.mac 	passedUpPk:count 	135632
attr interpolationmode  none
attr source  packetSentToUpper
attr title  "packets passed to higher layer, count"
scalar scenarioPRJP1.node[1].wlan.mac 	passedUpPk:sum(packetBytes) 	24544760
attr interpolationmode  none
attr source  packetSentToUpper
attr title  "packets passed to higher layer, sum(packetBytes)"
statistic scenarioPRJP1.node[1].wlan.radio 	radioChannel:histogram
field count 1
field mean 3
field stddev -nan
field sum 3
field sqrsum 9
field min 3
field max 3
attr interpolationmode  sample-hold
attr source  radioChannelChanged
attr title  "Radio channel, histogram"
bin	-INF	0
bin	2	0
bin	3	1
bin	4	0
scalar scenarioPRJP1.node[1].wlan.radio 	transmissionState:count 	153292
attr interpolationmode  sample-hold
attr source  transmissionStateChanged
attr title  "Radio transmission state, count"
scalar scenarioPRJP1.node[1].wlan.radio 	receptionState:count 	2389597
attr interpolationmode  sample-hold
attr source  receptionStateChanged
attr title  "Radio reception state, count"
scalar scenarioPRJP1.node[1].wlan.radio 	radioMode:count 	76648
attr interpolationmode  sample-hold
attr source  radioModeChanged
attr title  "Radio mode, count"
statistic scenarioPRJP1.node[1].wlan.radio 	symbolErrorRate:histogram
field count 0
field mean -nan
field stddev -nan
field sum 0
field sqrsum 0
field min -nan
field max -nan
attr source  symbolErrorRate
attr title  "Symbol error rate, histogram"
bin	-INF	0
bin	-0.5	0
bin	-0.46666666666667	0
bin	-0.43333333333333	0
bin	-0.4	0
bin	-0.36666666666667	0
bin	-0.33333333333333	0
bin	-0.3	0
bin	-0.26666666666667	0
bin	-0.23333333333333	0
bin	-0.2	0
bin	-0.16666666666667	0
bin	-0.13333333333333	0
bin	-0.1	0
bin	-0.066666666666667	0
bin	-0.033333333333333	0
bin	0	0
bin	0.033333333333333	0
bin	0.066666666666667	0
bin	0.1	0
bin	0.13333333333333	0
bin	0.16666666666667	0
bin	0.2	0
bin	0.23333333333333	0
bin	0.26666666666667	0
bin	0.3	0
bin	0.33333333333333	0
bin	0.36666666666667	0
bin	0.4	0
bin	0.43333333333333	0
bin	0.46666666666667	0
bin	0.5	0
statistic scenarioPRJP1.node[1].wlan.radio 	bitErrorRate:histogram
field count 0
field mean -nan
field stddev -nan
field sum 0
field sqrsum 0
field min -nan
field max -nan
attr source  bitErrorRate
attr title  "Bit error rate, histogram"
bin	-INF	0
bin	-0.5	0
bin	-0.46666666666667	0
bin	-0.43333333333333	0
bin	-0.4	0
bin	-0.36666666666667	0
bin	-0.33333333333333	0
bin	-0.3	0
bin	-0.26666666666667	0
bin	-0.23333333333333	0
bin	-0.2	0
bin	-0.16666666666667	0
bin	-0.13333333333333	0
bin	-0.1	0
bin	-0.066666666666667	0
bin	-0.033333333333333	0
bin	0	0
bin	0.033333333333333	0
bin	0.066666666666667	0
bin	0.1	0
bin	0.13333333333333	0
bin	0.16666666666667	0
bin	0.2	0
bin	0.23333333333333	0
bin	0.26666666666667	0
bin	0.3	0
bin	0.33333333333333	0
bin	0.36666666666667	0
bin	0.4	0
bin	0.43333333333333	0
bin	0.46666666666667	0
bin	0.5	0
statistic scenarioPRJP1.node[1].wlan.radio 	packetErrorRate:histogram
field count 1036933
field mean 0.65879134910643
field stddev 0.46588445768678
field sum 683122.49000298
field sqrsum 675099.54355464
field min 0
field max 1
attr source  packetErrorRate
attr title  "Packet error rate, histogram"
bin	-INF	0
bin	-0.5	0
bin	-0.43333333333333	0
bin	-0.36666666666667	0
bin	-0.3	0
bin	-0.23333333333333	0
bin	-0.16666666666667	0
bin	-0.1	0
bin	-0.033333333333333	321714
bin	0.033333333333333	12584
bin	0.1	6297
bin	0.16666666666667	4357
bin	0.23333333333333	3441
bin	0.3	2840
bin	0.36666666666667	2493
bin	0.43333333333333	2413
bin	0.5	2233
bin	0.56666666666667	2132
bin	0.63333333333333	2073
bin	0.7	2280
bin	0.76666666666667	2435
bin	0.83333333333333	3035
bin	0.9	4542
bin	0.96666666666667	662064
bin	1.0333333333333	0
bin	1.1	0
bin	1.1666666666667	0
bin	1.2333333333333	0
bin	1.3	0
bin	1.3666666666667	0
bin	1.4333333333333	0
bin	1.5	0
statistic scenarioPRJP1.node[1].wlan.radio 	minSNIR:histogram
field count 1036933
field mean 1784.5591816428
field stddev 82877.526714112
field sum 1850468305.8984
field sqrsum 7.1256609579796e+15
field min 4.2223809612986e-06
field max 30624165.544296
attr source  minSNIR
attr title  "Min SNIR, histogram"
bin	-INF	0
bin	-116173.28759459	0
bin	-100683.50548082	0
bin	-85193.723367042	0
bin	-69703.941253267	0
bin	-54214.159139491	0
bin	-38724.377025716	0
bin	-23234.59491194	0
bin	-7744.8127981645	1028111
bin	7744.969315611	4831
bin	23234.751429387	1257
bin	38724.533543162	624
bin	54214.315656938	319
bin	69704.097770713	202
bin	85193.879884489	164
bin	100683.66199826	111
bin	116173.44411204	82
bin	131663.22622582	69
bin	147153.00833959	52
bin	162642.79045337	42
bin	178132.57256714	46
bin	193622.35468092	38
bin	209112.13679469	26
bin	224601.91890847	35
bin	240091.70102224	30
bin	255581.48313602	29
bin	271071.2652498	28
bin	286561.04736357	22
bin	302050.82947735	23
bin	317540.61159112	21
bin	333030.3937049	21
bin	348520.17581867	750
scalar scenarioPRJP1.node[1].lo0.lo 	droppedPkBitError:count 	0
attr interpolationmode  none
attr source  dropPkBitError
attr title  "packets dropped/bit error, count"
scalar scenarioPRJP1.node[1].lo0.lo 	droppedPkBitError:sum(packetBytes) 	0
attr interpolationmode  none
attr source  dropPkBitError
attr title  "packets dropped/bit error, sum(packetBytes)"
scalar scenarioPRJP1.node[1].lo0.lo 	rcvdPkFromHL:count 	0
attr interpolationmode  none
attr source  packetReceivedFromUpper
attr title  "packets received from higher layer, count"
scalar scenarioPRJP1.node[1].lo0.lo 	rcvdPkFromHL:sum(packetBytes) 	0
attr interpolationmode  none
attr source  packetReceivedFromUpper
attr title  "packets received from higher layer, sum(packetBytes)"
scalar scenarioPRJP1.node[1].lo0.lo 	passedUpPk:count 	0
attr interpolationmode  none
attr source  packetSentToUpper
attr title  "packets passed to higher layer, count"
scalar scenarioPRJP1.node[1].lo0.lo 	passedUpPk:sum(packetBytes) 	0
attr interpolationmode  none
attr source  packetSentToUpper
attr title  "packets passed to higher layer, sum(packetBytes)"
scalar scenarioPRJP1.node[21].app 	"Total sent" 	2606
scalar scenarioPRJP1.node[21].app 	"Total received" 	424
scalar scenarioPRJP1.node[21].app 	"Total deleted" 	0
scalar scenarioPRJP1.node[21].app 	dropPk:count 	0
attr interpolationmode  none
attr source  dropPk
attr title  "packets dropped, count"
scalar scenarioPRJP1.node[21].app 	dropPk:sum(packetBytes) 	0
attr interpolationmode  none
attr source  dropPk
attr title  "packets dropped, sum(packetBytes)"
scalar scenarioPRJP1.node[21].app 	outOfOrderPk:count 	0
attr interpolationmode  none
attr source  outOfOrderPk
attr title  "packets received out of order, count"
scalar scenarioPRJP1.node[21].app 	outOfOrderPk:sum(packetBytes) 	0
attr interpolationmode  none
attr source  outOfOrderPk
attr title  "packets received out of order, sum(packetBytes)"
scalar scenarioPRJP1.node[21].app 	rcvdPk:count 	424
attr interpolationmode  none
attr source  rcvdPk
attr title  "packets received, count"
scalar scenarioPRJP1.node[21].app 	rcvdPk:sum(packetBytes) 	217088
attr interpolationmode  none
attr source  rcvdPk
attr title  "packets received, sum(packetBytes)"
statistic scenarioPRJP1.node[21].app 	endToEndDelay:histogram
field count 424
field mean 3.5250315662929
field stddev 3.2174277197181
field sum 1494.6133841082
field sqrsum 9647.3881570563
field min 0.001625057998
field max 18.33245729724
attr interpolationmode  none
attr source  messageAge(rcvdPk)
attr title  "delay, histogram"
attr unit  s
bin	-INF	0
bin	-9.153040920993	0
bin	-7.9314632224049	0
bin	-6.7098855238167	0
bin	-5.4883078252286	0
bin	-4.2667301266405	0
bin	-3.0451524280523	0
bin	-1.8235747294642	0
bin	-0.60199703087607	75
bin	0.61958066771207	80
bin	1.8411583663002	82
bin	3.0627360648883	58
bin	4.2843137634765	33
bin	5.5058914620646	29
bin	6.7274691606527	18
bin	7.9490468592409	18
bin	9.170624557829	11
bin	10.392202256417	12
bin	11.613779955005	3
bin	12.835357653593	1
bin	14.056935352182	2
bin	15.27851305077	1
bin	16.500090749358	0
bin	17.721668447946	1
bin	18.943246146534	0
bin	20.164823845122	0
bin	21.38640154371	0
bin	22.607979242298	0
bin	23.829556940887	0
bin	25.051134639475	0
bin	26.272712338063	0
bin	27.494290036651	0
scalar scenarioPRJP1.node[21].app 	sentPk:count 	2606
attr interpolationmode  none
attr source  sentPk
attr title  "packets sent, count"
scalar scenarioPRJP1.node[21].app 	sentPk:sum(packetBytes) 	1334272
attr interpolationmode  none
attr source  sentPk
attr title  "packets sent, sum(packetBytes)"
scalar scenarioPRJP1.node[21].udp 	droppedPkBadChecksum:count 	0
attr interpolationmode  none
attr title  "packets dropped (checksum error), count"
scalar scenarioPRJP1.node[21].udp 	droppedPkWrongPort:count 	0
attr interpolationmode  none
attr title  "packets dropped (wrong port), count"
scalar scenarioPRJP1.node[21].udp 	passedUpPk:count 	424
attr interpolationmode  none
attr title  "packets passed up, count"
scalar scenarioPRJP1.node[21].udp 	rcvdPk:count 	424
attr interpolationmode  none
attr source  rcvdPk
attr title  "packets received, count"
scalar scenarioPRJP1.node[21].udp 	rcvdPk:sum(packetBytes) 	220480
attr interpolationmode  none
attr source  rcvdPk
attr title  "packets received, sum(packetBytes)"
scalar scenarioPRJP1.node[21].udp 	sentPk:count 	2606
attr interpolationmode  none
attr source  sentPk
attr title  "packets sent, count"
scalar scenarioPRJP1.node[21].udp 	sentPk:sum(packetBytes) 	1355120
attr interpolationmode  none
attr source  sentPk
attr title  "packets sent, sum(packetBytes)"
scalar scenarioPRJP1.node[21].networkLayer.arp 	failedARPResolution:count 	161
attr title  "ARP failed resolutions, count"
scalar scenarioPRJP1.node[21].networkLayer.arp 	completedARPResolution:count 	5468
attr title  "ARP completed resolutions, count"
scalar scenarioPRJP1.node[21].networkLayer.arp 	initiatedARPResolution:count 	226
attr title  "ARP initiated resolutions, count"
scalar scenarioPRJP1.node[21].networkLayer.arp 	sentReply:count 	57
attr title  "ARP replies sent, count"
scalar scenarioPRJP1.node[21].networkLayer.arp 	sentReq:count 	593
attr title  "ARP request sent, count"
scalar scenarioPRJP1.node[21].mobility 	startTime 	2.5
scalar scenarioPRJP1.node[21].mobility 	totalTime 	947.5
scalar scenarioPRJP1.node[21].mobility 	stopTime 	950
scalar scenarioPRJP1.node[21].mobility 	minSpeed 	2.4754193412337e-13
scalar scenarioPRJP1.node[21].mobility 	maxSpeed 	18.239505228671
scalar scenarioPRJP1.node[21].mobility 	totalDistance 	7827.2004440258
scalar scenarioPRJP1.node[21].mobility 	totalCO2Emission 	2379.7264835754
scalar scenarioPRJP1.node[21].wlan.mgmt 	dataQueueLen:max 	100
attr interpolationmode  sample-hold
attr title  "data queue length, max"
scalar scenarioPRJP1.node[21].wlan.mgmt 	dataQueueLen:timeavg 	14.825801361322
attr interpolationmode  sample-hold
attr title  "data queue length, timeavg"
scalar scenarioPRJP1.node[21].wlan.mgmt 	dropPkByQueue:count 	259
attr interpolationmode  none
attr source  dropPkByQueue
attr title  "packets dropped by queue, count"
scalar scenarioPRJP1.node[21].wlan.mgmt 	dropPkByQueue:sum(packetBytes) 	57697
attr interpolationmode  none
attr source  dropPkByQueue
attr title  "packets dropped by queue, sum(packetBytes)"
scalar scenarioPRJP1.node[21].wlan.mac 	"number of received packets" 	2212
scalar scenarioPRJP1.node[21].wlan.mac 	"number of collisions" 	762256
scalar scenarioPRJP1.node[21].wlan.mac 	"number of internal collisions" 	3
scalar scenarioPRJP1.node[21].wlan.mac 	"number of retry for AC 0" 	12947
scalar scenarioPRJP1.node[21].wlan.mac 	"number of retry for AC 1" 	12
scalar scenarioPRJP1.node[21].wlan.mac 	"number of retry for AC 2" 	0
scalar scenarioPRJP1.node[21].wlan.mac 	"number of retry for AC 3" 	0
scalar scenarioPRJP1.node[21].wlan.mac 	"sent and received bits" 	18056544
scalar scenarioPRJP1.node[21].wlan.mac 	"sent packet within AC 0" 	297
scalar scenarioPRJP1.node[21].wlan.mac 	"sent packet within AC 1" 	0
scalar scenarioPRJP1.node[21].wlan.mac 	"sent packet within AC 2" 	0
scalar scenarioPRJP1.node[21].wlan.mac 	"sent packet within AC 3" 	0
scalar scenarioPRJP1.node[21].wlan.mac 	"sent in TXOP " 	0
scalar scenarioPRJP1.node[21].wlan.mac 	"sentWithoutRetry AC 0" 	193
scalar scenarioPRJP1.node[21].wlan.mac 	"sentWithoutRetry AC 1" 	0
scalar scenarioPRJP1.node[21].wlan.mac 	"sentWithoutRetry AC 2" 	0
scalar scenarioPRJP1.node[21].wlan.mac 	"sentWithoutRetry AC 3" 	0
scalar scenarioPRJP1.node[21].wlan.mac 	"numGivenUp AC 0" 	2129
scalar scenarioPRJP1.node[21].wlan.mac 	"numGivenUp AC 1" 	2
scalar scenarioPRJP1.node[21].wlan.mac 	"numGivenUp AC 2" 	0
scalar scenarioPRJP1.node[21].wlan.mac 	"numGivenUp AC 3" 	0
scalar scenarioPRJP1.node[21].wlan.mac 	"numDropped AC 0" 	4790
scalar scenarioPRJP1.node[21].wlan.mac 	"numDropped AC 1" 	0
scalar scenarioPRJP1.node[21].wlan.mac 	"numDropped AC 2" 	0
scalar scenarioPRJP1.node[21].wlan.mac 	"numDropped AC 3" 	0
scalar scenarioPRJP1.node[21].wlan.mac 	rcvdPkFromLL:count 	1077578
attr interpolationmode  none
attr source  packetReceivedFromLower
attr title  "packets received from lower layer, count"
scalar scenarioPRJP1.node[21].wlan.mac 	rcvdPkFromLL:sum(packetBytes) 	363285376
attr interpolationmode  none
attr source  packetReceivedFromLower
attr title  "packets received from lower layer, sum(packetBytes)"
scalar scenarioPRJP1.node[21].wlan.mac 	sentDownPk:count 	28929
attr interpolationmode  none
attr source  packetSentToLower
attr title  "packets sent to lower layer, count"
scalar scenarioPRJP1.node[21].wlan.mac 	sentDownPk:sum(packetBytes) 	10314226
attr interpolationmode  none
attr source  packetSentToLower
attr title  "packets sent to lower layer, sum(packetBytes)"
scalar scenarioPRJP1.node[21].wlan.mac 	rcvdPkFromHL:count 	18601
attr interpolationmode  none
attr source  packetReceivedFromUpper
attr title  "packets received from higher layer, count"
scalar scenarioPRJP1.node[21].wlan.mac 	rcvdPkFromHL:sum(packetBytes) 	4569530
attr interpolationmode  none
attr source  packetReceivedFromUpper
[...]
attr source  packetSentToUpper
attr title  "packets passed to higher layer, sum(packetBytes)"
statistic scenarioPRJP1.node[57].wlan.radio 	radioChannel:histogram
field count 1
field mean 3
field stddev -nan
field sum 3
field sqrsum 9
field min 3
field max 3
attr interpolationmode  sample-hold
attr source  radioChannelChanged
attr title  "Radio channel, histogram"
bin	-INF	0
bin	2	0
bin	3	1
bin	4	0
scalar scenarioPRJP1.node[57].wlan.radio 	transmissionState:count 	151008
attr interpolationmode  sample-hold
attr source  transmissionStateChanged
attr title  "Radio transmission state, count"
scalar scenarioPRJP1.node[57].wlan.radio 	receptionState:count 	2378000
attr interpolationmode  sample-hold
attr source  receptionStateChanged
attr title  "Radio reception state, count"
scalar scenarioPRJP1.node[57].wlan.radio 	radioMode:count 	75506
attr interpolationmode  sample-hold
attr source  radioModeChanged
attr title  "Radio mode, count"
statistic scenarioPRJP1.node[57].wlan.radio 	symbolErrorRate:histogram
field count 0
field mean -nan
field stddev -nan
field sum 0
field sqrsum 0
field min -nan
field max -nan
attr source  symbolErrorRate
attr title  "Symbol error rate, histogram"
bin	-INF	0
bin	-0.5	0
bin	-0.46666666666667	0
bin	-0.43333333333333	0
bin	-0.4	0
bin	-0.36666666666667	0
bin	-0.33333333333333	0
bin	-0.3	0
bin	-0.26666666666667	0
bin	-0.23333333333333	0
bin	-0.2	0
bin	-0.16666666666667	0
bin	-0.13333333333333	0
bin	-0.1	0
bin	-0.066666666666667	0
bin	-0.033333333333333	0
bin	0	0
bin	0.033333333333333	0
bin	0.066666666666667	0
bin	0.1	0
bin	0.13333333333333	0
bin	0.16666666666667	0
bin	0.2	0
bin	0.23333333333333	0
bin	0.26666666666667	0
bin	0.3	0
bin	0.33333333333333	0
bin	0.36666666666667	0
bin	0.4	0
bin	0.43333333333333	0
bin	0.46666666666667	0
bin	0.5	0
statistic scenarioPRJP1.node[57].wlan.radio 	bitErrorRate:histogram
field count 0
field mean -nan
field stddev -nan
field sum 0
field sqrsum 0
field min -nan
field max -nan
attr source  bitErrorRate
attr title  "Bit error rate, histogram"
bin	-INF	0
bin	-0.5	0
bin	-0.46666666666667	0
bin	-0.43333333333333	0
bin	-0.4	0
bin	-0.36666666666667	0
bin	-0.33333333333333	0
bin	-0.3	0
bin	-0.26666666666667	0
bin	-0.23333333333333	0
bin	-0.2	0
bin	-0.16666666666667	0
bin	-0.13333333333333	0
bin	-0.1	0
bin	-0.066666666666667	0
bin	-0.033333333333333	0
bin	0	0
bin	0.033333333333333	0
bin	0.066666666666667	0
bin	0.1	0
bin	0.13333333333333	0
bin	0.16666666666667	0
bin	0.2	0
bin	0.23333333333333	0
bin	0.26666666666667	0
bin	0.3	0
bin	0.33333333333333	0
bin	0.36666666666667	0
bin	0.4	0
bin	0.43333333333333	0
bin	0.46666666666667	0
bin	0.5	0
statistic scenarioPRJP1.node[57].wlan.radio 	packetErrorRate:histogram
field count 1031712
field mean 0.66084460533464
field stddev 0.46517406047791
field sum 681801.30945901
field sqrsum 673813.46900092
field min 0
field max 1
attr source  packetErrorRate
attr title  "Packet error rate, histogram"
bin	-INF	0
bin	-0.5	0
bin	-0.43333333333333	0
bin	-0.36666666666667	0
bin	-0.3	0
bin	-0.23333333333333	0
bin	-0.16666666666667	0
bin	-0.1	0
bin	-0.033333333333333	318094
bin	0.033333333333333	12510
bin	0.1	6193
bin	0.16666666666667	4170
bin	0.23333333333333	3381
bin	0.3	2840
bin	0.36666666666667	2635
bin	0.43333333333333	2363
bin	0.5	2226
bin	0.56666666666667	2129
bin	0.63333333333333	2177
bin	0.7	2272
bin	0.76666666666667	2424
bin	0.83333333333333	2936
bin	0.9	4592
bin	0.96666666666667	660770
bin	1.0333333333333	0
bin	1.1	0
bin	1.1666666666667	0
bin	1.2333333333333	0
bin	1.3	0
bin	1.3666666666667	0
bin	1.4333333333333	0
bin	1.5	0
statistic scenarioPRJP1.node[57].wlan.radio 	minSNIR:histogram
field count 1031712
field mean 1392.8009478914
field stddev 62906.255277498
field sum 1436969451.5509
field sqrsum 4.0846850380297e+15
field min 3.230646508465e-06
field max 14544471.98079
attr source  minSNIR
attr title  "Min SNIR, histogram"
bin	-INF	0
bin	-263942.68815956	0
bin	-228750.17217859	0
bin	-193557.65619762	0
bin	-158365.14021665	0
bin	-123172.62423568	0
bin	-87980.108254705	0
bin	-52787.592273734	0
bin	-17595.076292763	1027076
bin	17597.439688207	2711
bin	52789.955669178	578
bin	87982.471650149	264
bin	123174.98763112	153
bin	158367.50361209	110
bin	193560.01959306	75
bin	228752.53557403	47
bin	263945.051555	53
bin	299137.56753597	32
bin	334330.08351694	36
bin	369522.59949791	30
bin	404715.11547888	26
bin	439907.63145986	19
bin	475100.14744083	25
bin	510292.6634218	21
bin	545485.17940277	21
bin	580677.69538374	18
bin	615870.21136471	11
bin	651062.72734568	10
bin	686255.24332665	13
bin	721447.75930762	7
bin	756640.27528859	12
bin	791832.79126956	364
scalar scenarioPRJP1.node[57].lo0.lo 	droppedPkBitError:count 	0
attr interpolationmode  none
attr source  dropPkBitError
attr title  "packets dropped/bit error, count"
scalar scenarioPRJP1.node[57].lo0.lo 	droppedPkBitError:sum(packetBytes) 	0
attr interpolationmode  none
attr source  dropPkBitError
attr title  "packets dropped/bit error, sum(packetBytes)"
scalar scenarioPRJP1.node[57].lo0.lo 	rcvdPkFromHL:count 	0
attr interpolationmode  none
attr source  packetReceivedFromUpper
attr title  "packets received from higher layer, count"
scalar scenarioPRJP1.node[57].lo0.lo 	rcvdPkFromHL:sum(packetBytes) 	0
attr interpolationmode  none
attr source  packetReceivedFromUpper
attr title  "packets received from higher layer, sum(packetBytes)"
scalar scenarioPRJP1.node[57].lo0.lo 	passedUpPk:count 	0
attr interpolationmode  none
attr source  packetSentToUpper
attr title  "packets passed to higher layer, count"
scalar scenarioPRJP1.node[57].lo0.lo 	passedUpPk:sum(packetBytes) 	0
attr interpolationmode  none
attr source  packetSentToUpper
attr title  "packets passed to higher layer, sum(packetBytes)"
scalar scenarioPRJP1.node[74].app 	"Total sent" 	2602
scalar scenarioPRJP1.node[74].app 	"Total received" 	483
scalar scenarioPRJP1.node[74].app 	"Total deleted" 	1
scalar scenarioPRJP1.node[74].app 	dropPk:count 	1
attr interpolationmode  none
attr source  dropPk
attr title  "packets dropped, count"
scalar scenarioPRJP1.node[74].app 	dropPk:sum(packetBytes) 	512
attr interpolationmode  none
attr source  dropPk
attr title  "packets dropped, sum(packetBytes)"
scalar scenarioPRJP1.node[74].app 	outOfOrderPk:count 	0
attr interpolationmode  none
attr source  outOfOrderPk
attr title  "packets received out of order, count"
scalar scenarioPRJP1.node[74].app 	outOfOrderPk:sum(packetBytes) 	0
attr interpolationmode  none
attr source  outOfOrderPk
attr title  "packets received out of order, sum(packetBytes)"
scalar scenarioPRJP1.node[74].app 	rcvdPk:count 	483
attr interpolationmode  none
attr source  rcvdPk
attr title  "packets received, count"
scalar scenarioPRJP1.node[74].app 	rcvdPk:sum(packetBytes) 	247296
attr interpolationmode  none
attr source  rcvdPk
attr title  "packets received, sum(packetBytes)"
statistic scenarioPRJP1.node[74].app 	endToEndDelay:histogram
field count 483
field mean 3.3073299847185
field stddev 3.4130562528099
field sum 1597.4403826191
field sqrsum 10898.057814931
field min 0.002009109951
field max 19.081919257653
attr interpolationmode  none
attr source  messageAge(rcvdPk)
attr title  "delay, histogram"
attr unit  s
bin	-INF	0
bin	-6.8097018545235	0
bin	-5.9012648446525	0
bin	-4.9928278347815	0
bin	-4.0843908249105	0
bin	-3.1759538150395	0
bin	-2.2675168051685	0
bin	-1.3590797952975	0
bin	-0.4506427854265	84
bin	0.4577942244445	85
bin	1.3662312343155	67
bin	2.2746682441865	61
bin	3.1831052540575	42
bin	4.0915422639285	42
bin	4.9999792737995	26
bin	5.9084162836705	15
bin	6.8168532935415	16
bin	7.7252903034125	10
bin	8.6337273132835	8
bin	9.5421643231545	4
bin	10.450601333025	2
bin	11.359038342897	5
bin	12.267475352767	3
bin	13.175912362638	2
bin	14.08434937251	2
bin	14.99278638238	3
bin	15.901223392251	2
bin	16.809660402122	2
bin	17.718097411994	1
bin	18.626534421864	1
bin	19.534971431735	0
bin	20.443408441607	0
scalar scenarioPRJP1.node[74].app 	sentPk:count 	2602
attr interpolationmode  none
attr source  sentPk
attr title  "packets sent, count"
scalar scenarioPRJP1.node[74].app 	sentPk:sum(packetBytes) 	1332224
attr interpolationmode  none
attr source  sentPk
attr title  "packets sent, sum(packetBytes)"
scalar scenarioPRJP1.node[74].udp 	droppedPkBadChecksum:count 	0
attr interpolationmode  none
attr title  "packets dropped (checksum error), count"
scalar scenarioPRJP1.node[74].udp 	droppedPkWrongPort:count 	0
attr interpolationmode  none
attr title  "packets dropped (wrong port), count"
scalar scenarioPRJP1.node[74].udp 	passedUpPk:count 	484
attr interpolationmode  none
attr title  "packets passed up, count"
scalar scenarioPRJP1.node[74].udp 	rcvdPk:count 	484
attr interpolationmode  none
attr source  rcvdPk
attr title  "packets received, count"
scalar scenarioPRJP1.node[74].udp 	rcvdPk:sum(packetBytes) 	251680
attr interpolationmode  none
attr source  rcvdPk
attr title  "packets received, sum(packetBytes)"
scalar scenarioPRJP1.node[74].udp 	sentPk:count 	2602
attr interpolationmode  none
attr source  sentPk
attr title  "packets sent, count"
scalar scenarioPRJP1.node[74].udp 	sentPk:sum(packetBytes) 	1353040
attr interpolationmode  none
attr source  sentPk
attr title  "packets sent, sum(packetBytes)"
scalar scenarioPRJP1.node[74].networkLayer.arp 	failedARPResolution:count 	171
attr title  "ARP failed resolutions, count"
scalar scenarioPRJP1.node[74].networkLayer.arp 	completedARPResolution:count 	5482
attr title  "ARP completed resolutions, count"
scalar scenarioPRJP1.node[74].networkLayer.arp 	initiatedARPResolution:count 	238
attr title  "ARP initiated resolutions, count"
scalar scenarioPRJP1.node[74].networkLayer.arp 	sentReply:count 	52
attr title  "ARP replies sent, count"
scalar scenarioPRJP1.node[74].networkLayer.arp 	sentReq:count 	632
attr title  "ARP request sent, count"
scalar scenarioPRJP1.node[74].mobility 	startTime 	7.4
scalar scenarioPRJP1.node[74].mobility 	totalTime 	942.6
scalar scenarioPRJP1.node[74].mobility 	stopTime 	950
scalar scenarioPRJP1.node[74].mobility 	minSpeed 	2.475602561769e-13
scalar scenarioPRJP1.node[74].mobility 	maxSpeed 	16.616069294134
scalar scenarioPRJP1.node[74].mobility 	totalDistance 	8078.3199673845
scalar scenarioPRJP1.node[74].mobility 	totalCO2Emission 	2255.4203374853
scalar scenarioPRJP1.node[74].wlan.mgmt 	dataQueueLen:max 	100
attr interpolationmode  sample-hold
attr title  "data queue length, max"
scalar scenarioPRJP1.node[74].wlan.mgmt 	dataQueueLen:timeavg 	12.938012034858
attr interpolationmode  sample-hold
attr title  "data queue length, timeavg"
scalar scenarioPRJP1.node[74].wlan.mgmt 	dropPkByQueue:count 	394
attr interpolationmode  none
attr source  dropPkByQueue
attr title  "packets dropped by queue, count"
scalar scenarioPRJP1.node[74].wlan.mgmt 	dropPkByQueue:sum(packetBytes) 	88588
attr interpolationmode  none
attr source  dropPkByQueue
attr title  "packets dropped by queue, sum(packetBytes)"
scalar scenarioPRJP1.node[74].wlan.mac 	"number of received packets" 	3032
scalar scenarioPRJP1.node[74].wlan.mac 	"number of collisions" 	729290
scalar scenarioPRJP1.node[74].wlan.mac 	"number of internal collisions" 	0
scalar scenarioPRJP1.node[74].wlan.mac 	"number of retry for AC 0" 	16340
scalar scenarioPRJP1.node[74].wlan.mac 	"number of retry for AC 1" 	6
scalar scenarioPRJP1.node[74].wlan.mac 	"number of retry for AC 2" 	0
scalar scenarioPRJP1.node[74].wlan.mac 	"number of retry for AC 3" 	0
scalar scenarioPRJP1.node[74].wlan.mac 	"sent and received bits" 	21052176
scalar scenarioPRJP1.node[74].wlan.mac 	"sent packet within AC 0" 	394
scalar scenarioPRJP1.node[74].wlan.mac 	"sent packet within AC 1" 	0
scalar scenarioPRJP1.node[74].wlan.mac 	"sent packet within AC 2" 	0
scalar scenarioPRJP1.node[74].wlan.mac 	"sent packet within AC 3" 	0
scalar scenarioPRJP1.node[74].wlan.mac 	"sent in TXOP " 	0
scalar scenarioPRJP1.node[74].wlan.mac 	"sentWithoutRetry AC 0" 	256
scalar scenarioPRJP1.node[74].wlan.mac 	"sentWithoutRetry AC 1" 	0
scalar scenarioPRJP1.node[74].wlan.mac 	"sentWithoutRetry AC 2" 	0
scalar scenarioPRJP1.node[74].wlan.mac 	"sentWithoutRetry AC 3" 	0
scalar scenarioPRJP1.node[74].wlan.mac 	"numGivenUp AC 0" 	2678
scalar scenarioPRJP1.node[74].wlan.mac 	"numGivenUp AC 1" 	1
scalar scenarioPRJP1.node[74].wlan.mac 	"numGivenUp AC 2" 	0
scalar scenarioPRJP1.node[74].wlan.mac 	"numGivenUp AC 3" 	0
scalar scenarioPRJP1.node[74].wlan.mac 	"numDropped AC 0" 	2874
scalar scenarioPRJP1.node[74].wlan.mac 	"numDropped AC 1" 	0
scalar scenarioPRJP1.node[74].wlan.mac 	"numDropped AC 2" 	0
scalar scenarioPRJP1.node[74].wlan.mac 	"numDropped AC 3" 	0
scalar scenarioPRJP1.node[74].wlan.mac 	rcvdPkFromLL:count 	1051652
attr interpolationmode  none
attr source  packetReceivedFromLower
attr title  "packets received from lower layer, count"
scalar scenarioPRJP1.node[74].wlan.mac 	rcvdPkFromLL:sum(packetBytes) 	356372086
attr interpolationmode  none
attr source  packetReceivedFromLower
attr title  "packets received from lower layer, sum(packetBytes)"
scalar scenarioPRJP1.node[74].wlan.mac 	sentDownPk:count 	35473
attr interpolationmode  none
attr source  packetSentToLower
attr title  "packets sent to lower layer, count"
scalar scenarioPRJP1.node[74].wlan.mac 	sentDownPk:sum(packetBytes) 	12859319
attr interpolationmode  none
attr source  packetSentToLower
attr title  "packets sent to lower layer, sum(packetBytes)"
scalar scenarioPRJP1.node[74].wlan.mac 	rcvdPkFromHL:count 	19005
attr interpolationmode  none
attr source  packetReceivedFromUpper
attr title  "packets received from higher layer, count"
scalar scenarioPRJP1.node[74].wlan.mac 	rcvdPkFromHL:sum(packetBytes) 	4760484
attr interpolationmode  none
attr source  packetReceivedFromUpper
attr title  "packets received from higher layer, sum(packetBytes)"
scalar scenarioPRJP1.node[74].wlan.mac 	passedUpPk:count 	136373
attr interpolationmode  none
attr source  packetSentToUpper
attr title  "packets passed to higher layer, count"
scalar scenarioPRJP1.node[74].wlan.mac 	passedUpPk:sum(packetBytes) 	24458339
attr interpolationmode  none
attr source  packetSentToUpper
attr title  "packets passed to higher layer, sum(packetBytes)"
statistic scenarioPRJP1.node[74].wlan.radio 	radioChannel:histogram
field count 1
field mean 3
field stddev -nan
field sum 3
field sqrsum 9
field min 3
field max 3
attr interpolationmode  sample-hold
attr source  radioChannelChanged
attr title  "Radio channel, histogram"
bin	-INF	0
bin	2	0
bin	3	1
bin	4	0
scalar scenarioPRJP1.node[74].wlan.radio 	transmissionState:count 	141892
attr interpolationmode  sample-hold
attr source  transmissionStateChanged
attr title  "Radio transmission state, count"
scalar scenarioPRJP1.node[74].wlan.radio 	receptionState:count 	2417258
attr interpolationmode  sample-hold
attr source  receptionStateChanged
attr title  "Radio reception state, count"
scalar scenarioPRJP1.node[74].wlan.radio 	radioMode:count 	70948
attr interpolationmode  sample-hold
attr source  radioModeChanged
attr title  "Radio mode, count"
statistic scenarioPRJP1.node[74].wlan.radio 	symbolErrorRate:histogram
field count 0
field mean -nan
field stddev -nan
field sum 0
field sqrsum 0
field min -nan
field max -nan
attr source  symbolErrorRate
attr title  "Symbol error rate, histogram"
bin	-INF	0
bin	-0.5	0
bin	-0.46666666666667	0
bin	-0.43333333333333	0
bin	-0.4	0
bin	-0.36666666666667	0
bin	-0.33333333333333	0
bin	-0.3	0
bin	-0.26666666666667	0
bin	-0.23333333333333	0
bin	-0.2	0
bin	-0.16666666666667	0
bin	-0.13333333333333	0
bin	-0.1	0
bin	-0.066666666666667	0
bin	-0.033333333333333	0
bin	0	0
bin	0.033333333333333	0
bin	0.066666666666667	0
bin	0.1	0
bin	0.13333333333333	0
bin	0.16666666666667	0
bin	0.2	0
bin	0.23333333333333	0
bin	0.26666666666667	0
bin	0.3	0
bin	0.33333333333333	0
bin	0.36666666666667	0
bin	0.4	0
bin	0.43333333333333	0
bin	0.46666666666667	0
bin	0.5	0
statistic scenarioPRJP1.node[74].wlan.radio 	bitErrorRate:histogram
field count 0
field mean -nan
field stddev -nan
field sum 0
field sqrsum 0
field min -nan
field max -nan
attr source  bitErrorRate
attr title  "Bit error rate, histogram"
bin	-INF	0
bin	-0.5	0
bin	-0.46666666666667	0
bin	-0.43333333333333	0
bin	-0.4	0
bin	-0.36666666666667	0
bin	-0.33333333333333	0
bin	-0.3	0
bin	-0.26666666666667	0
bin	-0.23333333333333	0
bin	-0.2	0
bin	-0.16666666666667	0
bin	-0.13333333333333	0
bin	-0.1	0
bin	-0.066666666666667	0
bin	-0.033333333333333	0
bin	0	0
bin	0.033333333333333	0
bin	0.066666666666667	0
bin	0.1	0
bin	0.13333333333333	0
bin	0.16666666666667	0
bin	0.2	0
bin	0.23333333333333	0
bin	0.26666666666667	0
bin	0.3	0
bin	0.33333333333333	0
bin	0.36666666666667	0
bin	0.4	0
bin	0.43333333333333	0
bin	0.46666666666667	0
bin	0.5	0
statistic scenarioPRJP1.node[74].wlan.radio 	packetErrorRate:histogram
field count 1051652
field mean 0.66466383215473
field stddev 0.46398480039799
field sum 698995.04841319
field sqrsum 690998.14769451
field min 0
field max 1
attr source  packetErrorRate
attr title  "Packet error rate, histogram"
bin	-INF	0
bin	-3.2991714471464e-08	0
bin	-2.8592819208602e-08	0
bin	-2.419392394574e-08	0
bin	-1.9795028682879e-08	0
bin	-1.5396133420017e-08	0
bin	-1.0997238157155e-08	0
bin	-6.5983428942928e-09	0
bin	-2.1994476314309e-09	208002
bin	2.1994476314309e-09	4420
bin	6.5983428942928e-09	2149
bin	1.0997238157155e-08	1459
bin	1.5396133420017e-08	1092
bin	1.9795028682879e-08	851
bin	2.419392394574e-08	760
bin	2.8592819208602e-08	664
bin	3.2991714471464e-08	631
bin	3.7390609734326e-08	497
bin	4.1789504997188e-08	468
bin	4.618840026005e-08	421
bin	5.0587295522912e-08	411
bin	5.4986190785774e-08	363
bin	5.9385086048636e-08	327
bin	6.3783981311497e-08	298
bin	6.8182876574359e-08	289
bin	7.2581771837221e-08	272
bin	7.6980667100083e-08	261
bin	8.1379562362945e-08	264
bin	8.5778457625807e-08	255
bin	9.0177352888669e-08	237
bin	9.4576248151531e-08	234
bin	9.8975143414393e-08	827027
statistic scenarioPRJP1.node[74].wlan.radio 	minSNIR:histogram
field count 1051652
field mean 735.00606870506
field stddev 43657.25353995
field sum 772970602.16581
field sqrsum 2.0049684470713e+15
field min 6.5952770029662e-06
field max 13417698.565717
attr source  minSNIR
attr title  "Min SNIR, histogram"
bin	-INF	0
bin	-187880.70160177	0
bin	-162829.35042961	0
bin	-137777.99925745	0
bin	-112726.64808528	0
bin	-87675.296913122	0
bin	-62623.945740959	0
bin	-37572.594568796	0
bin	-12521.243396634	1048397
bin	12530.107775529	1802
bin	37581.458947692	445
bin	62632.810119854	186
bin	87684.161292017	113
bin	112735.51246418	95
bin	137786.86363634	65
bin	162838.21480851	49
bin	187889.56598067	56
bin	212940.91715283	31
bin	237992.26832499	25
bin	263043.61949716	23
bin	288094.97066932	21
bin	313146.32184148	14
bin	338197.67301364	18
bin	363249.02418581	12
bin	388300.37535797	9
bin	413351.72653013	13
bin	438403.0777023	11
bin	463454.42887446	10
bin	488505.78004662	6
bin	513557.13121878	8
bin	538608.48239095	10
bin	563659.83356311	233
scalar scenarioPRJP1.node[74].lo0.lo 	droppedPkBitError:count 	0
attr interpolationmode  none
attr source  dropPkBitError
attr title  "packets dropped/bit error, count"
scalar scenarioPRJP1.node[74].lo0.lo 	droppedPkBitError:sum(packetBytes) 	0
attr interpolationmode  none
attr source  dropPkBitError
attr title  "packets dropped/bit error, sum(packetBytes)"
scalar scenarioPRJP1.node[74].lo0.lo 	rcvdPkFromHL:count 	0
attr interpolationmode  none
attr source  packetReceivedFromUpper
attr title  "packets received from higher layer, count"
scalar scenarioPRJP1.node[74].lo0.lo 	rcvdPkFromHL:sum(packetBytes) 	0
attr interpolationmode  none
attr source  packetReceivedFromUpper
attr title  "packets received from higher layer, sum(packetBytes)"
scalar scenarioPRJP1.node[74].lo0.lo 	passedUpPk:count 	0
attr interpolationmode  none
attr source  packetSentToUpper
attr title  "packets passed to higher layer, count"
scalar scenarioPRJP1.node[74].lo0.lo 	passedUpPk:sum(packetBytes) 	0
attr interpolationmode  none
attr source  packetSentToUpper
attr title  "packets passed to higher layer, sum(packetBytes)"
