version 2
run DSRUU-TRG-75n-10-20150801-03:32:46-4580
attr configname DSRUU-TRG-75n
attr datetime 20150801-03:32:46
attr experiment DSRUU-TRG-75n
attr inifile omnetpp.ini
attr iterationvars ""
attr iterationvars2 $repetition=10
attr measurement ""
attr network Prj_Part1_propag.scenarioPRJP1
attr processid 4580
attr repetition 10
attr replication #10
attr resultdir results
attr runnumber 10
attr seedset 10

scalar scenarioPRJP1.radioMedium.propagation 	"Arrival computation count" 	397593194
scalar scenarioPRJP1.radioMedium 	"transmission count" 	5372881
scalar scenarioPRJP1.radioMedium 	"radio frame send count" 	397593194
scalar scenarioPRJP1.radioMedium 	"reception computation count" 	391310505
scalar scenarioPRJP1.radioMedium 	"interference computation count" 	991190217
scalar scenarioPRJP1.radioMedium 	"reception decision computation count" 	25555104
scalar scenarioPRJP1.radioMedium 	"listening decision computation count" 	586280678
scalar scenarioPRJP1.radioMedium 	"reception cache hit" 	90.590369947911
attr unit  %
scalar scenarioPRJP1.radioMedium 	"interference cache hit" 	50
attr unit  %
scalar scenarioPRJP1.radioMedium 	"noise cache hit" 	0
attr unit  %
scalar scenarioPRJP1.radioMedium 	"snir cache hit" 	0
attr unit  %
scalar scenarioPRJP1.radioMedium 	"reception decision cache hit" 	0
attr unit  %
scalar scenarioPRJP1.node[0].app 	"Total sent" 	2592
scalar scenarioPRJP1.node[0].app 	"Total received" 	176
scalar scenarioPRJP1.node[0].app 	"Total deleted" 	7
scalar scenarioPRJP1.node[0].app 	dropPk:count 	7
attr interpolationmode  none
attr source  dropPk
attr title  "packets dropped, count"
scalar scenarioPRJP1.node[0].app 	dropPk:sum(packetBytes) 	3584
attr interpolationmode  none
attr source  dropPk
attr title  "packets dropped, sum(packetBytes)"
scalar scenarioPRJP1.node[0].app 	outOfOrderPk:count 	10
attr interpolationmode  none
attr source  outOfOrderPk
attr title  "packets received out of order, count"
scalar scenarioPRJP1.node[0].app 	outOfOrderPk:sum(packetBytes) 	5120
attr interpolationmode  none
attr source  outOfOrderPk
attr title  "packets received out of order, sum(packetBytes)"
scalar scenarioPRJP1.node[0].app 	rcvdPk:count 	176
attr interpolationmode  none
attr source  rcvdPk
attr title  "packets received, count"
scalar scenarioPRJP1.node[0].app 	rcvdPk:sum(packetBytes) 	90112
attr interpolationmode  none
attr source  rcvdPk
attr title  "packets received, sum(packetBytes)"
statistic scenarioPRJP1.node[0].app 	endToEndDelay:histogram
field count 176
field mean 1.6821076383933
field stddev 4.1350750679146
field sum 296.05094435722
field sqrsum 3490.2875728824
field min 0.001003022685
field max 19.575396025545
attr interpolationmode  none
attr source  messageAge(rcvdPk)
attr title  "delay, histogram"
attr unit  s
bin	-INF	0
bin	-9.786193478745	0
bin	-8.481233945221	0
bin	-7.176274411697	0
bin	-5.871314878173	0
bin	-4.566355344649	0
bin	-3.261395811125	0
bin	-1.956436277601	0
bin	-0.651476744077	130
bin	0.653482789447	16
bin	1.958442322971	7
bin	3.263401856495	2
bin	4.568361390019	4
bin	5.873320923543	2
bin	7.178280457067	3
bin	8.483239990591	0
bin	9.788199524115	1
bin	11.093159057639	1
bin	12.398118591163	1
bin	13.703078124687	2
bin	15.008037658211	2
bin	16.312997191735	1
bin	17.617956725259	3
bin	18.922916258783	1
bin	20.227875792307	0
bin	21.532835325831	0
bin	22.837794859355	0
bin	24.142754392879	0
bin	25.447713926403	0
bin	26.752673459927	0
bin	28.057632993451	0
bin	29.362592526975	0
scalar scenarioPRJP1.node[0].app 	sentPk:count 	2592
attr interpolationmode  none
attr source  sentPk
attr title  "packets sent, count"
scalar scenarioPRJP1.node[0].app 	sentPk:sum(packetBytes) 	1327104
attr interpolationmode  none
attr source  sentPk
attr title  "packets sent, sum(packetBytes)"
scalar scenarioPRJP1.node[0].udp 	droppedPkBadChecksum:count 	0
attr interpolationmode  none
attr title  "packets dropped (checksum error), count"
scalar scenarioPRJP1.node[0].udp 	droppedPkWrongPort:count 	0
attr interpolationmode  none
attr title  "packets dropped (wrong port), count"
scalar scenarioPRJP1.node[0].udp 	passedUpPk:count 	193
attr interpolationmode  none
attr title  "packets passed up, count"
scalar scenarioPRJP1.node[0].udp 	rcvdPk:count 	193
attr interpolationmode  none
attr source  rcvdPk
attr title  "packets received, count"
scalar scenarioPRJP1.node[0].udp 	rcvdPk:sum(packetBytes) 	100360
attr interpolationmode  none
attr source  rcvdPk
attr title  "packets received, sum(packetBytes)"
scalar scenarioPRJP1.node[0].udp 	sentPk:count 	2592
attr interpolationmode  none
attr source  sentPk
attr title  "packets sent, count"
scalar scenarioPRJP1.node[0].udp 	sentPk:sum(packetBytes) 	1347840
attr interpolationmode  none
attr source  sentPk
attr title  "packets sent, sum(packetBytes)"
scalar scenarioPRJP1.node[0].networkLayer.arp 	failedARPResolution:count 	14
attr title  "ARP failed resolutions, count"
scalar scenarioPRJP1.node[0].networkLayer.arp 	completedARPResolution:count 	1181
attr title  "ARP completed resolutions, count"
scalar scenarioPRJP1.node[0].networkLayer.arp 	initiatedARPResolution:count 	72
attr title  "ARP initiated resolutions, count"
scalar scenarioPRJP1.node[0].networkLayer.arp 	sentReply:count 	55
attr title  "ARP replies sent, count"
scalar scenarioPRJP1.node[0].networkLayer.arp 	sentReq:count 	127
attr title  "ARP request sent, count"
scalar scenarioPRJP1.node[0].mobility 	startTime 	0.1
scalar scenarioPRJP1.node[0].mobility 	totalTime 	949.9
scalar scenarioPRJP1.node[0].mobility 	stopTime 	950
scalar scenarioPRJP1.node[0].mobility 	minSpeed 	2.4754856253704e-13
scalar scenarioPRJP1.node[0].mobility 	maxSpeed 	17.124302552663
scalar scenarioPRJP1.node[0].mobility 	totalDistance 	8154.9592126986
scalar scenarioPRJP1.node[0].mobility 	totalCO2Emission 	2367.2165914481
scalar scenarioPRJP1.node[0].wlan.mgmt 	dataQueueLen:max 	22
attr interpolationmode  sample-hold
attr title  "data queue length, max"
scalar scenarioPRJP1.node[0].wlan.mgmt 	dataQueueLen:timeavg 	0.0024805218581777
attr interpolationmode  sample-hold
attr title  "data queue length, timeavg"
scalar scenarioPRJP1.node[0].wlan.mgmt 	dropPkByQueue:count 	0
attr interpolationmode  none
attr source  dropPkByQueue
attr title  "packets dropped by queue, count"
scalar scenarioPRJP1.node[0].wlan.mgmt 	dropPkByQueue:sum(packetBytes) 	0
attr interpolationmode  none
attr source  dropPkByQueue
attr title  "packets dropped by queue, sum(packetBytes)"
scalar scenarioPRJP1.node[0].wlan.mac 	"number of received packets" 	12994
scalar scenarioPRJP1.node[0].wlan.mac 	"number of collisions" 	57308
scalar scenarioPRJP1.node[0].wlan.mac 	"number of internal collisions" 	0
scalar scenarioPRJP1.node[0].wlan.mac 	"number of retry for AC 0" 	25036
scalar scenarioPRJP1.node[0].wlan.mac 	"number of retry for AC 1" 	0
scalar scenarioPRJP1.node[0].wlan.mac 	"number of retry for AC 2" 	0
scalar scenarioPRJP1.node[0].wlan.mac 	"number of retry for AC 3" 	0
scalar scenarioPRJP1.node[0].wlan.mac 	"sent and received bits" 	19859488
scalar scenarioPRJP1.node[0].wlan.mac 	"sent packet within AC 0" 	4854
scalar scenarioPRJP1.node[0].wlan.mac 	"sent packet within AC 1" 	0
scalar scenarioPRJP1.node[0].wlan.mac 	"sent packet within AC 2" 	0
scalar scenarioPRJP1.node[0].wlan.mac 	"sent packet within AC 3" 	0
scalar scenarioPRJP1.node[0].wlan.mac 	"sent in TXOP " 	0
scalar scenarioPRJP1.node[0].wlan.mac 	"sentWithoutRetry AC 0" 	4343
scalar scenarioPRJP1.node[0].wlan.mac 	"sentWithoutRetry AC 1" 	0
scalar scenarioPRJP1.node[0].wlan.mac 	"sentWithoutRetry AC 2" 	0
scalar scenarioPRJP1.node[0].wlan.mac 	"sentWithoutRetry AC 3" 	0
scalar scenarioPRJP1.node[0].wlan.mac 	"numGivenUp AC 0" 	3986
scalar scenarioPRJP1.node[0].wlan.mac 	"numGivenUp AC 1" 	0
scalar scenarioPRJP1.node[0].wlan.mac 	"numGivenUp AC 2" 	0
scalar scenarioPRJP1.node[0].wlan.mac 	"numGivenUp AC 3" 	0
scalar scenarioPRJP1.node[0].wlan.mac 	"numDropped AC 0" 	30
scalar scenarioPRJP1.node[0].wlan.mac 	"numDropped AC 1" 	0
scalar scenarioPRJP1.node[0].wlan.mac 	"numDropped AC 2" 	0
scalar scenarioPRJP1.node[0].wlan.mac 	"numDropped AC 3" 	0
scalar scenarioPRJP1.node[0].wlan.mac 	rcvdPkFromLL:count 	315346
attr interpolationmode  none
attr source  packetReceivedFromLower
attr title  "packets received from lower layer, count"
scalar scenarioPRJP1.node[0].wlan.mac 	rcvdPkFromLL:sum(packetBytes) 	77052420
attr interpolationmode  none
attr source  packetReceivedFromLower
attr title  "packets received from lower layer, sum(packetBytes)"
scalar scenarioPRJP1.node[0].wlan.mac 	sentDownPk:count 	59076
attr interpolationmode  none
attr source  packetSentToLower
attr title  "packets sent to lower layer, count"
scalar scenarioPRJP1.node[0].wlan.mac 	sentDownPk:sum(packetBytes) 	13290276
attr interpolationmode  none
attr source  packetSentToLower
attr title  "packets sent to lower layer, sum(packetBytes)"
scalar scenarioPRJP1.node[0].wlan.mac 	rcvdPkFromHL:count 	21077
attr interpolationmode  none
attr source  packetReceivedFromUpper
attr title  "packets received from higher layer, count"
scalar scenarioPRJP1.node[0].wlan.mac 	rcvdPkFromHL:sum(packetBytes) 	3928960
attr interpolationmode  none
attr source  packetReceivedFromUpper
attr title  "packets received from higher layer, sum(packetBytes)"
scalar scenarioPRJP1.node[0].wlan.mac 	passedUpPk:count 	45409
attr interpolationmode  none
attr source  packetSentToUpper
attr title  "packets passed to higher layer, count"
scalar scenarioPRJP1.node[0].wlan.mac 	passedUpPk:sum(packetBytes) 	4391660
attr interpolationmode  none
attr source  packetSentToUpper
attr title  "packets passed to higher layer, sum(packetBytes)"
statistic scenarioPRJP1.node[0].wlan.radio 	radioChannel:histogram
field count 1
field mean 3
field stddev nan
field sum 3
field sqrsum 9
field min 3
field max 3
attr interpolationmode  sample-hold
attr source  radioChannelChanged
attr title  "Radio channel, histogram"
bin	-INF	0
bin	2	0
bin	3	1
bin	4	0
scalar scenarioPRJP1.node[0].wlan.radio 	transmissionState:count 	236304
attr interpolationmode  sample-hold
attr source  transmissionStateChanged
attr title  "Radio transmission state, count"
scalar scenarioPRJP1.node[0].wlan.radio 	receptionState:count 	759385
attr interpolationmode  sample-hold
attr source  receptionStateChanged
attr title  "Radio reception state, count"
scalar scenarioPRJP1.node[0].wlan.radio 	radioMode:count 	118154
attr interpolationmode  sample-hold
attr source  radioModeChanged
attr title  "Radio mode, count"
statistic scenarioPRJP1.node[0].wlan.radio 	symbolErrorRate:histogram
field count 0
field mean nan
field stddev nan
field sum 0
field sqrsum 0
field min nan
field max nan
attr source  symbolErrorRate
attr title  "Symbol error rate, histogram"
bin	-INF	0
bin	-0.5	0
bin	-0.46666666666667	0
bin	-0.43333333333333	0
bin	-0.4	0
bin	-0.36666666666667	0
bin	-0.33333333333333	0
bin	-0.3	0
bin	-0.26666666666667	0
bin	-0.23333333333333	0
bin	-0.2	0
bin	-0.16666666666667	0
bin	-0.13333333333333	0
bin	-0.1	0
bin	-0.066666666666667	0
bin	-0.033333333333333	0
bin	0	0
bin	0.033333333333333	0
bin	0.066666666666667	0
bin	0.1	0
bin	0.13333333333333	0
bin	0.16666666666667	0
bin	0.2	0
bin	0.23333333333333	0
bin	0.26666666666667	0
bin	0.3	0
bin	0.33333333333333	0
bin	0.36666666666667	0
bin	0.4	0
bin	0.43333333333333	0
bin	0.46666666666667	0
bin	0.5	0
statistic scenarioPRJP1.node[0].wlan.radio 	bitErrorRate:histogram
field count 0
field mean nan
field stddev nan
field sum 0
field sqrsum 0
field min nan
field max nan
attr source  bitErrorRate
attr title  "Bit error rate, histogram"
bin	-INF	0
bin	-0.5	0
bin	-0.46666666666667	0
bin	-0.43333333333333	0
bin	-0.4	0
bin	-0.36666666666667	0
bin	-0.33333333333333	0
bin	-0.3	0
bin	-0.26666666666667	0
bin	-0.23333333333333	0
bin	-0.2	0
bin	-0.16666666666667	0
bin	-0.13333333333333	0
bin	-0.1	0
bin	-0.066666666666667	0
bin	-0.033333333333333	0
bin	0	0
bin	0.033333333333333	0
bin	0.066666666666667	0
bin	0.1	0
bin	0.13333333333333	0
bin	0.16666666666667	0
bin	0.2	0
bin	0.23333333333333	0
bin	0.26666666666667	0
bin	0.3	0
bin	0.33333333333333	0
bin	0.36666666666667	0
bin	0.4	0
bin	0.43333333333333	0
bin	0.46666666666667	0
bin	0.5	0
statistic scenarioPRJP1.node[0].wlan.radio 	packetErrorRate:histogram
field count 315346
field mean 0.17114087491645
field stddev 0.36848950721835
field sum 53968.590341403
field sqrsum 52055.200260333
field min 0
field max 1
attr source  packetErrorRate
attr title  "Packet error rate, histogram"
bin	-INF	0
bin	-0.498327965613	0
bin	-0.4318842368646	0
bin	-0.3654405081162	0
bin	-0.2989967793678	0
bin	-0.2325530506194	0
bin	-0.166109321871	0
bin	-0.0996655931226	0
bin	-0.0332218643742	253538
bin	0.0332218643742	3258
bin	0.0996655931226	1492
bin	0.166109321871	987
bin	0.2325530506194	828
bin	0.2989967793678	681
bin	0.3654405081162	615
bin	0.4318842368646	563
bin	0.498327965613	520
bin	0.5647716943614	530
bin	0.6312154231098	498
bin	0.6976591518582	483
bin	0.7641028806066	555
bin	0.830546609355	654
bin	0.8969903381034	1033
bin	0.9634340668518	49111
bin	1.0298777956002	0
bin	1.0963215243486	0
bin	1.162765253097	0
bin	1.2292089818454	0
bin	1.2956527105938	0
bin	1.3620964393422	0
bin	1.4285401680906	0
bin	1.494983896839	0
statistic scenarioPRJP1.node[0].wlan.radio 	minSNIR:histogram
field count 315346
field mean 4075.1049659185
field stddev 32768.056412589
field sum 1285068050.5825
field sqrsum 3.4383706853271e+14
field min 0.00016840137643635
field max 753239.71923443
attr source  minSNIR
attr title  "Min SNIR, histogram"
bin	-INF	0
bin	-78.695017103144	0
bin	-67.991995095263	0
bin	-57.288973087382	0
bin	-46.585951079501	0
bin	-35.882929071621	0
bin	-25.17990706374	0
bin	-14.476885055859	0
bin	-3.7738630479787	90550
bin	6.929158959902	42095
bin	17.632180967783	21076
bin	28.335202975663	12410
bin	39.038224983544	8354
bin	49.741246991425	6197
bin	60.444268999305	4948
bin	71.147291007186	4177
bin	81.850313015067	3663
bin	92.553335022948	3229
bin	103.25635703083	2940
bin	113.95937903871	2446
bin	124.66240104659	3023
bin	135.36542305447	2920
bin	146.06844506235	2823
bin	156.77146707023	2501
bin	167.47448907811	2372
bin	178.17751108599	2151
bin	188.88053309387	1825
bin	199.58355510175	1894
bin	210.28657710964	1606
bin	220.98959911752	1614
bin	231.6926211254	1450
bin	242.39564313328	89082
scalar scenarioPRJP1.node[0].lo0.lo 	droppedPkBitError:count 	0
attr interpolationmode  none
attr source  dropPkBitError
attr title  "packets dropped/bit error, count"
scalar scenarioPRJP1.node[0].lo0.lo 	droppedPkBitError:sum(packetBytes) 	0
attr interpolationmode  none
attr source  dropPkBitError
attr title  "packets dropped/bit error, sum(packetBytes)"
scalar scenarioPRJP1.node[0].lo0.lo 	rcvdPkFromHL:count 	193
attr interpolationmode  none
attr source  packetReceivedFromUpper
attr title  "packets received from higher layer, count"
scalar scenarioPRJP1.node[0].lo0.lo 	rcvdPkFromHL:sum(packetBytes) 	100360
attr interpolationmode  none
attr source  packetReceivedFromUpper
attr title  "packets received from higher layer, sum(packetBytes)"
scalar scenarioPRJP1.node[0].lo0.lo 	passedUpPk:count 	193
attr interpolationmode  none
attr source  packetSentToUpper
attr title  "packets passed to higher layer, count"
scalar scenarioPRJP1.node[0].lo0.lo 	passedUpPk:sum(packetBytes) 	100360
attr interpolationmode  none
attr source  packetSentToUpper
attr title  "packets passed to higher layer, sum(packetBytes)"
scalar scenarioPRJP1.node[20].app 	"Total sent" 	2614
scalar scenarioPRJP1.node[20].app 	"Total received" 	157
scalar scenarioPRJP1.node[20].app 	"Total deleted" 	5
scalar scenarioPRJP1.node[20].app 	dropPk:count 	5
attr interpolationmode  none
attr source  dropPk
attr title  "packets dropped, count"
scalar scenarioPRJP1.node[20].app 	dropPk:sum(packetBytes) 	2560
attr interpolationmode  none
attr source  dropPk
attr title  "packets dropped, sum(packetBytes)"
scalar scenarioPRJP1.node[20].app 	outOfOrderPk:count 	9
attr interpolationmode  none
attr source  outOfOrderPk
attr title  "packets received out of order, count"
scalar scenarioPRJP1.node[20].app 	outOfOrderPk:sum(packetBytes) 	4608
attr interpolationmode  none
attr source  outOfOrderPk
attr title  "packets received out of order, sum(packetBytes)"
scalar scenarioPRJP1.node[20].app 	rcvdPk:count 	157
attr interpolationmode  none
attr source  rcvdPk
attr title  "packets received, count"
scalar scenarioPRJP1.node[20].app 	rcvdPk:sum(packetBytes) 	80384
attr interpolationmode  none
attr source  rcvdPk
attr title  "packets received, sum(packetBytes)"
statistic scenarioPRJP1.node[20].app 	endToEndDelay:histogram
field count 157
field mean 1.5847626246363
field stddev 3.5147395853193
field sum 248.80773206789
field sqrsum 2321.430713509
field min 0.000964027753
field max 18.367508928012
attr interpolationmode  none
attr source  messageAge(rcvdPk)
attr title  "delay, histogram"
attr unit  s
bin	-INF	0
bin	-9.1823084223765	0
bin	-7.9578720956926	0
bin	-6.7334357690086	0
bin	-5.5089994423247	0
bin	-4.2845631156408	0
bin	-3.0601267889568	0
bin	-1.8356904622729	0
bin	-0.61125413558897	109
bin	0.61318219109497	16
bin	1.8376185177789	9
bin	3.0620548444628	3
bin	4.2864911711468	5
bin	5.5109274978307	3
bin	6.7353638245146	2
bin	7.9598001511986	0
bin	9.1842364778825	4
bin	10.408672804566	0
bin	11.63310913125	0
bin	12.857545457934	2
bin	14.081981784618	1
bin	15.306418111302	1
bin	16.530854437986	1
bin	17.75529076467	1
bin	18.979727091354	0
bin	20.204163418038	0
bin	21.428599744722	0
bin	22.653036071406	0
bin	23.87747239809	0
bin	25.101908724774	0
bin	26.326345051458	0
bin	27.550781378142	0
scalar scenarioPRJP1.node[20].app 	sentPk:count 	2614
attr interpolationmode  none
attr source  sentPk
attr title  "packets sent, count"
scalar scenarioPRJP1.node[20].app 	sentPk:sum(packetBytes) 	1338368
attr interpolationmode  none
attr source  sentPk
attr title  "packets sent, sum(packetBytes)"
scalar scenarioPRJP1.node[20].udp 	droppedPkBadChecksum:count 	0
attr interpolationmode  none
attr title  "packets dropped (checksum error), count"
scalar scenarioPRJP1.node[20].udp 	droppedPkWrongPort:count 	0
attr interpolationmode  none
attr title  "packets dropped (wrong port), count"
scalar scenarioPRJP1.node[20].udp 	passedUpPk:count 	171
attr interpolationmode  none
attr title  "packets passed up, count"
scalar scenarioPRJP1.node[20].udp 	rcvdPk:count 	171
attr interpolationmode  none
attr source  rcvdPk
attr title  "packets received, count"
scalar scenarioPRJP1.node[20].udp 	rcvdPk:sum(packetBytes) 	88920
attr interpolationmode  none
attr source  rcvdPk
attr title  "packets received, sum(packetBytes)"
scalar scenarioPRJP1.node[20].udp 	sentPk:count 	2614
attr interpolationmode  none
attr source  sentPk
attr title  "packets sent, count"
scalar scenarioPRJP1.node[20].udp 	sentPk:sum(packetBytes) 	1359280
attr interpolationmode  none
attr source  sentPk
attr title  "packets sent, sum(packetBytes)"
scalar scenarioPRJP1.node[20].networkLayer.arp 	failedARPResolution:count 	113
attr title  "ARP failed resolutions, count"
scalar scenarioPRJP1.node[20].networkLayer.arp 	completedARPResolution:count 	1151
attr title  "ARP completed resolutions, count"
scalar scenarioPRJP1.node[20].networkLayer.arp 	initiatedARPResolution:count 	185
attr title  "ARP initiated resolutions, count"
scalar scenarioPRJP1.node[20].networkLayer.arp 	sentReply:count 	53
attr title  "ARP replies sent, count"
scalar scenarioPRJP1.node[20].networkLayer.arp 	sentReq:count 	452
attr title  "ARP request sent, count"
scalar scenarioPRJP1.node[20].mobility 	startTime 	2.5
scalar scenarioPRJP1.node[20].mobility 	totalTime 	947.5
scalar scenarioPRJP1.node[20].mobility 	stopTime 	950
scalar scenarioPRJP1.node[20].mobility 	minSpeed 	2.475646567438e-13
scalar scenarioPRJP1.node[20].mobility 	maxSpeed 	16.125528671235
scalar scenarioPRJP1.node[20].mobility 	totalDistance 	8408.8946044362
scalar scenarioPRJP1.node[20].mobility 	totalCO2Emission 	2275.6752179693
scalar scenarioPRJP1.node[20].wlan.mgmt 	dataQueueLen:max 	100
attr interpolationmode  sample-hold
attr title  "data queue length, max"
scalar scenarioPRJP1.node[20].wlan.mgmt 	dataQueueLen:timeavg 	0.57548329306186
attr interpolationmode  sample-hold
attr title  "data queue length, timeavg"
scalar scenarioPRJP1.node[20].wlan.mgmt 	dropPkByQueue:count 	144
attr interpolationmode  none
attr source  dropPkByQueue
attr title  "packets dropped by queue, count"
scalar scenarioPRJP1.node[20].wlan.mgmt 	dropPkByQueue:sum(packetBytes) 	66604
attr interpolationmode  none
attr source  dropPkByQueue
attr title  "packets dropped by queue, sum(packetBytes)"
scalar scenarioPRJP1.node[20].wlan.mac 	"number of received packets" 	14609
scalar scenarioPRJP1.node[20].wlan.mac 	"number of collisions" 	68380
scalar scenarioPRJP1.node[20].wlan.mac 	"number of internal collisions" 	0
scalar scenarioPRJP1.node[20].wlan.mac 	"number of retry for AC 0" 	35337
scalar scenarioPRJP1.node[20].wlan.mac 	"number of retry for AC 1" 	0
scalar scenarioPRJP1.node[20].wlan.mac 	"number of retry for AC 2" 	0
scalar scenarioPRJP1.node[20].wlan.mac 	"number of retry for AC 3" 	0
scalar scenarioPRJP1.node[20].wlan.mac 	"sent and received bits" 	19208480
scalar scenarioPRJP1.node[20].wlan.mac 	"sent packet within AC 0" 	5153
scalar scenarioPRJP1.node[20].wlan.mac 	"sent packet within AC 1" 	0
scalar scenarioPRJP1.node[20].wlan.mac 	"sent packet within AC 2" 	0
scalar scenarioPRJP1.node[20].wlan.mac 	"sent packet within AC 3" 	0
scalar scenarioPRJP1.node[20].wlan.mac 	"sent in TXOP " 	0
scalar scenarioPRJP1.node[20].wlan.mac 	"sentWithoutRetry AC 0" 	4608
scalar scenarioPRJP1.node[20].wlan.mac 	"sentWithoutRetry AC 1" 	0
scalar scenarioPRJP1.node[20].wlan.mac 	"sentWithoutRetry AC 2" 	0
scalar scenarioPRJP1.node[20].wlan.mac 	"sentWithoutRetry AC 3" 	0
scalar scenarioPRJP1.node[20].wlan.mac 	"numGivenUp AC 0" 	5681
scalar scenarioPRJP1.node[20].wlan.mac 	"numGivenUp AC 1" 	0
scalar scenarioPRJP1.node[20].wlan.mac 	"numGivenUp AC 2" 	0
scalar scenarioPRJP1.node[20].wlan.mac 	"numGivenUp AC 3" 	0
scalar scenarioPRJP1.node[20].wlan.mac 	"numDropped AC 0" 	499
scalar scenarioPRJP1.node[20].wlan.mac 	"numDropped AC 1" 	0
scalar scenarioPRJP1.node[20].wlan.mac 	"numDropped AC 2" 	0
scalar scenarioPRJP1.node[20].wlan.mac 	"numDropped AC 3" 	0
scalar scenarioPRJP1.node[20].wlan.mac 	rcvdPkFromLL:count 	319493
attr interpolationmode  none
attr source  packetReceivedFromLower
attr title  "packets received from lower layer, count"
scalar scenarioPRJP1.node[20].wlan.mac 	rcvdPkFromLL:sum(packetBytes) 	76037456
attr interpolationmode  none
attr source  packetReceivedFromLower
attr title  "packets received from lower layer, sum(packetBytes)"
scalar scenarioPRJP1.node[20].wlan.mac 	sentDownPk:count 	73891
attr interpolationmode  none
attr source  packetSentToLower
attr title  "packets sent to lower layer, count"
scalar scenarioPRJP1.node[20].wlan.mac 	sentDownPk:sum(packetBytes) 	18132482
attr interpolationmode  none
attr source  packetSentToLower
attr title  "packets sent to lower layer, sum(packetBytes)"
scalar scenarioPRJP1.node[20].wlan.mac 	rcvdPkFromHL:count 	24445
attr interpolationmode  none
attr source  packetReceivedFromUpper
attr title  "packets received from higher layer, count"
scalar scenarioPRJP1.node[20].wlan.mac 	rcvdPkFromHL:sum(packetBytes) 	4677740
attr interpolationmode  none
attr source  packetReceivedFromUpper
attr title  "packets received from higher layer, sum(packetBytes)"
scalar scenarioPRJP1.node[20].wlan.mac 	passedUpPk:count 	46111
attr interpolationmode  none
attr source  packetSentToUpper
attr title  "packets passed to higher layer, count"
scalar scenarioPRJP1.node[20].wlan.mac 	passedUpPk:sum(packetBytes) 	4920532
attr interpolationmode  none
attr source  packetSentToUpper
attr title  "packets passed to higher layer, sum(packetBytes)"
statistic scenarioPRJP1.node[20].wlan.radio 	radioChannel:histogram
field count 1
field mean 3
field stddev nan
field sum 3
field sqrsum 9
field min 3
field max 3
attr interpolationmode  sample-hold
attr source  radioChannelChanged
attr title  "Radio channel, histogram"
bin	-INF	0
bin	2	0
bin	3	1
bin	4	0
scalar scenarioPRJP1.node[20].wlan.radio 	transmissionState:count 	295564
attr interpolationmode  sample-hold
attr source  transmissionStateChanged
attr title  "Radio transmission state, count"
scalar scenarioPRJP1.node[20].wlan.radio 	receptionState:count 	798533
attr interpolationmode  sample-hold
attr source  receptionStateChanged
attr title  "Radio reception state, count"
scalar scenarioPRJP1.node[20].wlan.radio 	radioMode:count 	147784
attr interpolationmode  sample-hold
attr source  radioModeChanged
attr title  "Radio mode, count"
statistic scenarioPRJP1.node[20].wlan.radio 	symbolErrorRate:histogram
field count 0
field mean nan
field stddev nan
field sum 0
field sqrsum 0
field min nan
field max nan
attr source  symbolErrorRate
attr title  "Symbol error rate, histogram"
bin	-INF	0
bin	-0.5	0
bin	-0.46666666666667	0
bin	-0.43333333333333	0
bin	-0.4	0
bin	-0.36666666666667	0
bin	-0.33333333333333	0
bin	-0.3	0
bin	-0.26666666666667	0
bin	-0.23333333333333	0
bin	-0.2	0
bin	-0.16666666666667	0
bin	-0.13333333333333	0
bin	-0.1	0
bin	-0.066666666666667	0
bin	-0.033333333333333	0
bin	0	0
bin	0.033333333333333	0
bin	0.066666666666667	0
bin	0.1	0
bin	0.13333333333333	0
bin	0.16666666666667	0
bin	0.2	0
bin	0.23333333333333	0
bin	0.26666666666667	0
bin	0.3	0
bin	0.33333333333333	0
bin	0.36666666666667	0
bin	0.4	0
bin	0.43333333333333	0
bin	0.46666666666667	0
bin	0.5	0
statistic scenarioPRJP1.node[20].wlan.radio 	bitErrorRate:histogram
field count 0
field mean nan
field stddev nan
field sum 0
field sqrsum 0
field min nan
field max nan
attr source  bitErrorRate
attr title  "Bit error rate, histogram"
bin	-INF	0
bin	-0.5	0
bin	-0.46666666666667	0
bin	-0.43333333333333	0
bin	-0.4	0
bin	-0.36666666666667	0
bin	-0.33333333333333	0
bin	-0.3	0
bin	-0.26666666666667	0
bin	-0.23333333333333	0
bin	-0.2	0
bin	-0.16666666666667	0
bin	-0.13333333333333	0
bin	-0.1	0
bin	-0.066666666666667	0
bin	-0.033333333333333	0
bin	0	0
bin	0.033333333333333	0
bin	0.066666666666667	0
bin	0.1	0
bin	0.13333333333333	0
bin	0.16666666666667	0
bin	0.2	0
bin	0.23333333333333	0
bin	0.26666666666667	0
bin	0.3	0
bin	0.33333333333333	0
bin	0.36666666666667	0
bin	0.4	0
bin	0.43333333333333	0
bin	0.46666666666667	0
bin	0.5	0
statistic scenarioPRJP1.node[20].wlan.radio 	packetErrorRate:histogram
field count 319493
field mean 0.19967202038021
field stddev 0.39057216162658
field sum 63793.812807335
field sqrsum 61475.262111422
field min 0
field max 1
attr source  packetErrorRate
attr title  "Packet error rate, histogram"
bin	-INF	0
bin	-0.0005540446761732	0
bin	-0.00048017205268344	0
bin	-0.00040629942919368	0
bin	-0.00033242680570392	0
bin	-0.00025855418221416	0
bin	-0.0001846815587244	0
bin	-0.00011080893523464	0
bin	-3.693631174488e-05	224612
bin	3.693631174488e-05	2961
bin	0.00011080893523464	1514
bin	0.0001846815587244	987
bin	0.00025855418221416	778
bin	0.00033242680570392	592
bin	0.00040629942919368	526
bin	0.00048017205268344	463
bin	0.0005540446761732	417
bin	0.00062791729966296	352
bin	0.00070178992315273	295
bin	0.00077566254664249	295
bin	0.00084953517013225	262
bin	0.00092340779362201	220
bin	0.00099728041711177	234
bin	0.0010711530406015	216
bin	0.0011450256640913	209
bin	0.001218898287581	173
bin	0.0012927709110708	185
bin	0.0013666435345606	143
bin	0.0014405161580503	136
bin	0.0015143887815401	132
bin	0.0015882614050299	137
bin	0.0016621340285196	83654
statistic scenarioPRJP1.node[20].wlan.radio 	minSNIR:histogram
field count 319493
field mean 3529.1809676096
field stddev 34827.658423402
field sum 1127548614.8845
field sqrsum 3.9151218969203e+14
field min 0.00016739596579428
field max 753239.71923443
attr source  minSNIR
attr title  "Min SNIR, histogram"
bin	-INF	0
bin	-439.87949104251	0
bin	-380.86312680137	0
bin	-321.84676256023	0
bin	-262.83039831909	0
bin	-203.81403407795	0
bin	-144.79766983681	0
bin	-85.781305595672	0
bin	-26.764941354532	177779
bin	32.251422886607	33632
bin	91.267787127747	18397
bin	150.28415136889	13195
bin	209.30051561003	9017
bin	268.31687985116	6458
bin	327.3332440923	4341
bin	386.34960833344	3035
bin	445.36597257458	2578
bin	504.38233681572	2140
bin	563.39870105686	1811
bin	622.415065298	1633
bin	681.43142953914	1425
bin	740.44779378028	1263
bin	799.46415802142	1212
bin	858.48052226256	1036
bin	917.4968865037	988
bin	976.51325074484	978
bin	1035.529614986	979
bin	1094.5459792271	914
bin	1153.5623434683	835
bin	1212.5787077094	785
bin	1271.5950719505	731
bin	1330.6114361917	34331
scalar scenarioPRJP1.node[20].lo0.lo 	droppedPkBitError:count 	0
attr interpolationmode  none
attr source  dropPkBitError
attr title  "packets dropped/bit error, count"
scalar scenarioPRJP1.node[20].lo0.lo 	droppedPkBitError:sum(packetBytes) 	0
attr interpolationmode  none
attr source  dropPkBitError
attr title  "packets dropped/bit error, sum(packetBytes)"
scalar scenarioPRJP1.node[20].lo0.lo 	rcvdPkFromHL:count 	171
attr interpolationmode  none
attr source  packetReceivedFromUpper
attr title  "packets received from higher layer, count"
scalar scenarioPRJP1.node[20].lo0.lo 	rcvdPkFromHL:sum(packetBytes) 	88920
attr interpolationmode  none
attr source  packetReceivedFromUpper
attr title  "packets received from higher layer, sum(packetBytes)"
scalar scenarioPRJP1.node[20].lo0.lo 	passedUpPk:count 	171
attr interpolationmode  none
attr source  packetSentToUpper
attr title  "packets passed to higher layer, count"
scalar scenarioPRJP1.node[20].lo0.lo 	passedUpPk:sum(packetBytes) 	88920
attr interpolationmode  none
attr source  packetSentToUpper
attr title  "packets passed to higher layer, sum(packetBytes)"
scalar scenarioPRJP1.node[40].app 	"Total sent" 	2610
scalar scenarioPRJP1.node[40].app 	"Total received" 	180
scalar scenarioPRJP1.node[40].app 	"Total deleted" 	7
scalar scenarioPRJP1.node[40].app 	dropPk:count 	7
attr interpolationmode  none
attr source  dropPk
attr title  "packets dropped, count"
scalar scenarioPRJP1.node[40].app 	dropPk:sum(packetBytes) 	3584
attr interpolationmode  none
attr source  dropPk
attr title  "packets dropped, sum(packetBytes)"
scalar scenarioPRJP1.node[40].app 	outOfOrderPk:count 	14
attr interpolationmode  none
attr source  outOfOrderPk
attr title  "packets received out of order, count"
scalar scenarioPRJP1.node[40].app 	outOfOrderPk:sum(packetBytes) 	7168
attr interpolationmode  none
attr source  outOfOrderPk
attr title  "packets received out of order, sum(packetBytes)"
scalar scenarioPRJP1.node[40].app 	rcvdPk:count 	180
attr interpolationmode  none
attr source  rcvdPk
attr title  "packets received, count"
scalar scenarioPRJP1.node[40].app 	rcvdPk:sum(packetBytes) 	92160
attr interpolationmode  none
attr source  rcvdPk
attr title  "packets received, sum(packetBytes)"
statistic scenarioPRJP1.node[40].app 	endToEndDelay:histogram
field count 180
field mean 2.4149385387565
field stddev 4.6335504054548
field sum 434.68893697618
field sqrsum 4892.8393616952
field min 0.001054235466
field max 19.935268370507
attr interpolationmode  none
attr source  messageAge(rcvdPk)
attr title  "delay, histogram"
attr unit  s
bin	-INF	0
bin	-9.9660528320545	0
bin	-8.6371052230518	0
bin	-7.308157614049	0
bin	-5.9792100050463	0
bin	-4.6502623960436	0
bin	-3.3213147870408	0
bin	-1.9923671780381	0
bin	-0.66341956903537	115
bin	0.66552803996737	22
bin	1.9944756489701	8
bin	3.3234232579728	2
bin	4.6523708669756	5
bin	5.9813184759783	1
bin	7.310266084981	7
bin	8.6392136939838	1
bin	9.9681613029865	6
bin	11.297108911989	2
bin	12.626056520992	2
bin	13.955004129995	1
bin	15.283951738997	2
bin	16.612899348	2
bin	17.941846957003	3
bin	19.270794566006	1
bin	20.599742175008	0
bin	21.928689784011	0
bin	23.257637393014	0
bin	24.586585002017	0
bin	25.915532611019	0
bin	27.244480220022	0
bin	28.573427829025	0
bin	29.902375438027	0
scalar scenarioPRJP1.node[40].app 	sentPk:count 	2610
attr interpolationmode  none
attr source  sentPk
attr title  "packets sent, count"
scalar scenarioPRJP1.node[40].app 	sentPk:sum(packetBytes) 	1336320
attr interpolationmode  none
attr source  sentPk
attr title  "packets sent, sum(packetBytes)"
scalar scenarioPRJP1.node[40].udp 	droppedPkBadChecksum:count 	0
attr interpolationmode  none
attr title  "packets dropped (checksum error), count"
scalar scenarioPRJP1.node[40].udp 	droppedPkWrongPort:count 	0
attr interpolationmode  none
attr title  "packets dropped (wrong port), count"
scalar scenarioPRJP1.node[40].udp 	passedUpPk:count 	201
attr interpolationmode  none
attr title  "packets passed up, count"
scalar scenarioPRJP1.node[40].udp 	rcvdPk:count 	201
attr interpolationmode  none
attr source  rcvdPk
attr title  "packets received, count"
scalar scenarioPRJP1.node[40].udp 	rcvdPk:sum(packetBytes) 	104520
attr interpolationmode  none
attr source  rcvdPk
attr title  "packets received, sum(packetBytes)"
scalar scenarioPRJP1.node[40].udp 	sentPk:count 	2610
attr interpolationmode  none
attr source  sentPk
attr title  "packets sent, count"
scalar scenarioPRJP1.node[40].udp 	sentPk:sum(packetBytes) 	1357200
attr interpolationmode  none
attr source  sentPk
attr title  "packets sent, sum(packetBytes)"
scalar scenarioPRJP1.node[40].networkLayer.arp 	failedARPResolution:count 	23
attr title  "ARP failed resolutions, count"
scalar scenarioPRJP1.node[40].networkLayer.arp 	completedARPResolution:count 	1580
attr title  "ARP completed resolutions, count"
scalar scenarioPRJP1.node[40].networkLayer.arp 	initiatedARPResolution:count 	87
attr title  "ARP initiated resolutions, count"
scalar scenarioPRJP1.node[40].networkLayer.arp 	sentReply:count 	68
attr title  "ARP replies sent, count"
scalar scenarioPRJP1.node[40].networkLayer.arp 	sentReq:count 	148
attr title  "ARP request sent, count"
scalar scenarioPRJP1.node[40].mobility 	startTime 	4.9
scalar scenarioPRJP1.node[40].mobility 	totalTime 	945.1
scalar scenarioPRJP1.node[40].mobility 	stopTime 	950
scalar scenarioPRJP1.node[40].mobility 	minSpeed 	0
scalar scenarioPRJP1.node[40].mobility 	maxSpeed 	17.799522578976
scalar scenarioPRJP1.node[40].mobility 	totalDistance 	8987.1087675742
scalar scenarioPRJP1.node[40].mobility 	totalCO2Emission 	2447.214847199
scalar scenarioPRJP1.node[40].wlan.mgmt 	dataQueueLen:max 	26
attr interpolationmode  sample-hold
attr title  "data queue length, max"
scalar scenarioPRJP1.node[40].wlan.mgmt 	dataQueueLen:timeavg 	0.05484975592189
attr interpolationmode  sample-hold
attr title  "data queue length, timeavg"
scalar scenarioPRJP1.node[40].wlan.mgmt 	dropPkByQueue:count 	0
attr interpolationmode  none
attr source  dropPkByQueue
attr title  "packets dropped by queue, count"
scalar scenarioPRJP1.node[40].wlan.mgmt 	dropPkByQueue:sum(packetBytes) 	0
attr interpolationmode  none
attr source  dropPkByQueue
attr title  "packets dropped by queue, sum(packetBytes)"
scalar scenarioPRJP1.node[40].wlan.mac 	"number of received packets" 	15609
scalar scenarioPRJP1.node[40].wlan.mac 	"number of collisions" 	77341
scalar scenarioPRJP1.node[40].wlan.mac 	"number of internal collisions" 	0
scalar scenarioPRJP1.node[40].wlan.mac 	"number of retry for AC 0" 	38679
scalar scenarioPRJP1.node[40].wlan.mac 	"number of retry for AC 1" 	0
scalar scenarioPRJP1.node[40].wlan.mac 	"number of retry for AC 2" 	0
scalar scenarioPRJP1.node[40].wlan.mac 	"number of retry for AC 3" 	0
scalar scenarioPRJP1.node[40].wlan.mac 	"sent and received bits" 	22633920
scalar scenarioPRJP1.node[40].wlan.mac 	"sent packet within AC 0" 	6495
scalar scenarioPRJP1.node[40].wlan.mac 	"sent packet within AC 1" 	0
scalar scenarioPRJP1.node[40].wlan.mac 	"sent packet within AC 2" 	0
scalar scenarioPRJP1.node[40].wlan.mac 	"sent packet within AC 3" 	0
scalar scenarioPRJP1.node[40].wlan.mac 	"sent in TXOP " 	0
scalar scenarioPRJP1.node[40].wlan.mac 	"sentWithoutRetry AC 0" 	5848
scalar scenarioPRJP1.node[40].wlan.mac 	"sentWithoutRetry AC 1" 	0
scalar scenarioPRJP1.node[40].wlan.mac 	"sentWithoutRetry AC 2" 	0
scalar scenarioPRJP1.node[40].wlan.mac 	"sentWithoutRetry AC 3" 	0
scalar scenarioPRJP1.node[40].wlan.mac 	"numGivenUp AC 0" 	6230
scalar scenarioPRJP1.node[40].wlan.mac 	"numGivenUp AC 1" 	0
scalar scenarioPRJP1.node[40].wlan.mac 	"numGivenUp AC 2" 	0
scalar scenarioPRJP1.node[40].wlan.mac 	"numGivenUp AC 3" 	0
scalar scenarioPRJP1.node[40].wlan.mac 	"numDropped AC 0" 	389
scalar scenarioPRJP1.node[40].wlan.mac 	"numDropped AC 1" 	0
scalar scenarioPRJP1.node[40].wlan.mac 	"numDropped AC 2" 	0
scalar scenarioPRJP1.node[40].wlan.mac 	"numDropped AC 3" 	0
scalar scenarioPRJP1.node[40].wlan.mac 	rcvdPkFromLL:count 	412397
attr interpolationmode  none
attr source  packetReceivedFromLower
attr title  "packets received from lower layer, count"
scalar scenarioPRJP1.node[40].wlan.mac 	rcvdPkFromLL:sum(packetBytes) 	99673188
attr interpolationmode  none
attr source  packetReceivedFromLower
attr title  "packets received from lower layer, sum(packetBytes)"
scalar scenarioPRJP1.node[40].wlan.mac 	sentDownPk:count 	79325
attr interpolationmode  none
attr source  packetSentToLower
attr title  "packets sent to lower layer, count"
scalar scenarioPRJP1.node[40].wlan.mac 	sentDownPk:sum(packetBytes) 	19921186
attr interpolationmode  none
attr source  packetSentToLower
attr title  "packets sent to lower layer, sum(packetBytes)"
scalar scenarioPRJP1.node[40].wlan.mac 	rcvdPkFromHL:count 	25426
attr interpolationmode  none
attr source  packetReceivedFromUpper
attr title  "packets received from higher layer, count"
scalar scenarioPRJP1.node[40].wlan.mac 	rcvdPkFromHL:sum(packetBytes) 	5277360
attr interpolationmode  none
attr source  packetReceivedFromUpper
attr title  "packets received from higher layer, sum(packetBytes)"
scalar scenarioPRJP1.node[40].wlan.mac 	passedUpPk:count 	54862
attr interpolationmode  none
attr source  packetSentToUpper
attr title  "packets passed to higher layer, count"
scalar scenarioPRJP1.node[40].wlan.mac 	passedUpPk:sum(packetBytes) 	5725912
attr interpolationmode  none
attr source  packetSentToUpper
attr title  "packets passed to higher layer, sum(packetBytes)"
statistic scenarioPRJP1.node[40].wlan.radio 	radioChannel:histogram
field count 1
field mean 3
field stddev nan
field sum 3
field sqrsum 9
field min 3
field max 3
attr interpolationmode  sample-hold
attr source  radioChannelChanged
attr title  "Radio channel, histogram"
bin	-INF	0
bin	2	0
bin	3	1
bin	4	0
scalar scenarioPRJP1.node[40].wlan.radio 	transmissionState:count 	317300
attr interpolationmode  sample-hold
attr source  transmissionStateChanged
attr title  "Radio transmission state, count"
scalar scenarioPRJP1.node[40].wlan.radio 	receptionState:count 	998042
attr interpolationmode  sample-hold
attr source  receptionStateChanged
attr title  "Radio reception state, count"
scalar scenarioPRJP1.node[40].wlan.radio 	radioMode:count 	158652
attr interpolationmode  sample-hold
attr source  radioModeChanged
attr title  "Radio mode, count"
statistic scenarioPRJP1.node[40].wlan.radio 	symbolErrorRate:histogram
field count 0
field mean nan
field stddev nan
field sum 0
field sqrsum 0
field min nan
field max nan
attr source  symbolErrorRate
attr title  "Symbol error rate, histogram"
bin	-INF	0
bin	-0.5	0
bin	-0.46666666666667	0
bin	-0.43333333333333	0
bin	-0.4	0
bin	-0.36666666666667	0
bin	-0.33333333333333	0
bin	-0.3	0
bin	-0.26666666666667	0
bin	-0.23333333333333	0
bin	-0.2	0
bin	-0.16666666666667	0
bin	-0.13333333333333	0
bin	-0.1	0
bin	-0.066666666666667	0
bin	-0.033333333333333	0
bin	0	0
bin	0.033333333333333	0
bin	0.066666666666667	0
bin	0.1	0
bin	0.13333333333333	0
bin	0.16666666666667	0
bin	0.2	0
bin	0.23333333333333	0
bin	0.26666666666667	0
bin	0.3	0
bin	0.33333333333333	0
bin	0.36666666666667	0
bin	0.4	0
bin	0.43333333333333	0
bin	0.46666666666667	0
bin	0.5	0
statistic scenarioPRJP1.node[40].wlan.radio 	bitErrorRate:histogram
field count 0
field mean nan
field stddev nan
field sum 0
field sqrsum 0
field min nan
field max nan
attr source  bitErrorRate
attr title  "Bit error rate, histogram"
bin	-INF	0
bin	-0.5	0
bin	-0.46666666666667	0
bin	-0.43333333333333	0
bin	-0.4	0
bin	-0.36666666666667	0
bin	-0.33333333333333	0
bin	-0.3	0
bin	-0.26666666666667	0
bin	-0.23333333333333	0
bin	-0.2	0
bin	-0.16666666666667	0
bin	-0.13333333333333	0
bin	-0.1	0
bin	-0.066666666666667	0
bin	-0.033333333333333	0
bin	0	0
bin	0.033333333333333	0
bin	0.066666666666667	0
bin	0.1	0
bin	0.13333333333333	0
bin	0.16666666666667	0
bin	0.2	0
bin	0.23333333333333	0
bin	0.26666666666667	0
bin	0.3	0
bin	0.33333333333333	0
bin	0.36666666666667	0
bin	0.4	0
bin	0.43333333333333	0
bin	0.46666666666667	0
bin	0.5	0
statistic scenarioPRJP1.node[40].wlan.radio 	packetErrorRate:histogram
field count 412397
field mean 0.1752863341524
field stddev 0.37174218241774
field sum 72287.558345446
field sqrsum 69660.952316021
field min 0
field max 1
attr source  packetErrorRate
attr title  "Packet error rate, histogram"
bin	-INF	0
bin	-0.0033537822917316	0
bin	-0.0029066113195007	0
bin	-0.0024594403472698	0
bin	-0.0020122693750389	0
bin	-0.0015650984028081	0
bin	-0.0011179274305772	0
bin	-0.00067075645834631	0
bin	-0.00022358548611544	311053
bin	0.00022358548611544	3639
bin	0.00067075645834631	1740
bin	0.0011179274305772	1194
bin	0.0015650984028081	876
bin	0.0020122693750389	707
bin	0.0024594403472698	612
bin	0.0029066113195007	495
bin	0.0033537822917316	468
bin	0.0038009532639624	433
bin	0.0042481242361933	392
bin	0.0046952952084242	369
bin	0.0051424661806551	325
bin	0.0055896371528859	280
bin	0.0060368081251168	263
bin	0.0064839790973477	251
bin	0.0069311500695785	239
bin	0.0073783210418094	211
bin	0.0078254920140403	202
bin	0.0082726629862712	193
bin	0.008719833958502	207
bin	0.0091670049307329	188
bin	0.0096141759029638	163
bin	0.010061346875195	87897
statistic scenarioPRJP1.node[40].wlan.radio 	minSNIR:histogram
field count 412397
field mean 4136.349759226
field stddev 32371.358792738
field sum 1705818231.6555
field sqrsum 4.3920763763668e+14
field min 0.0001684630403812
field max 753239.71923443
attr source  minSNIR
attr title  "Min SNIR, histogram"
bin	-INF	0
bin	-293.67580461167	0
bin	-254.19232525527	0
bin	-214.70884589888	0
bin	-175.22536654249	0
bin	-135.74188718609	0
bin	-96.258407829701	0
bin	-56.774928473307	0
bin	-17.291449116914	186455
bin	22.19203023948	47104
bin	61.675509595873	22196
bin	101.15898895227	15250
bin	140.64246830866	13727
bin	180.12594766505	10429
bin	219.60942702145	7876
bin	259.09290637784	6216
bin	298.57638573423	5225
bin	338.05986509063	4170
bin	377.54334444702	3245
bin	417.02682380341	2736
bin	456.51030315981	2392
bin	495.9937825162	2093
bin	535.47726187259	1901
bin	574.96074122899	1820
bin	614.44422058538	1589
bin	653.92769994177	1399
bin	693.41117929817	1462
bin	732.89465865456	1339
bin	772.37813801095	1169
bin	811.86161736735	1165
bin	851.34509672374	1133
bin	890.82857608014	70306
scalar scenarioPRJP1.node[40].lo0.lo 	droppedPkBitError:count 	0
attr interpolationmode  none
attr source  dropPkBitError
attr title  "packets dropped/bit error, count"
scalar scenarioPRJP1.node[40].lo0.lo 	droppedPkBitError:sum(packetBytes) 	0
attr interpolationmode  none
attr source  dropPkBitError
attr title  "packets dropped/bit error, sum(packetBytes)"
scalar scenarioPRJP1.node[40].lo0.lo 	rcvdPkFromHL:count 	201
attr interpolationmode  none
attr source  packetReceivedFromUpper
attr title  "packets received from higher layer, count"
scalar scenarioPRJP1.node[40].lo0.lo 	rcvdPkFromHL:sum(packetBytes) 	104520
attr interpolationmode  none
attr source  packetReceivedFromUpper
attr title  "packets received from higher layer, sum(packetBytes)"
scalar scenarioPRJP1.node[40].lo0.lo 	passedUpPk:count 	201
attr interpolationmode  none
attr source  packetSentToUpper
attr title  "packets passed to higher layer, count"
scalar scenarioPRJP1.node[40].lo0.lo 	passedUpPk:sum(packetBytes) 	104520
attr interpolationmode  none
attr source  packetSentToUpper
attr title  "packets passed to higher layer, sum(packetBytes)"
scalar scenarioPRJP1.node[60].app 	"Total sent" 	2624
scalar scenarioPRJP1.node[60].app 	"Total received" 	156
scalar scenarioPRJP1.node[60].app 	"Total deleted" 	6
scalar scenarioPRJP1.node[60].app 	dropPk:count 	6
attr interpolationmode  none
attr source  dropPk
attr title  "packets dropped, count"
scalar scenarioPRJP1.node[60].app 	dropPk:sum(packetBytes) 	3072
attr interpolationmode  none
attr source  dropPk
attr title  "packets dropped, sum(packetBytes)"
scalar scenarioPRJP1.node[60].app 	outOfOrderPk:count 	3
attr interpolationmode  none
attr source  outOfOrderPk
attr title  "packets received out of order, count"
scalar scenarioPRJP1.node[60].app 	outOfOrderPk:sum(packetBytes) 	1536
attr interpolationmode  none
attr source  outOfOrderPk
attr title  "packets received out of order, sum(packetBytes)"
scalar scenarioPRJP1.node[60].app 	rcvdPk:count 	156
attr interpolationmode  none
attr source  rcvdPk
attr title  "packets received, count"
scalar scenarioPRJP1.node[60].app 	rcvdPk:sum(packetBytes) 	79872
attr interpolationmode  none
attr source  rcvdPk
attr title  "packets received, sum(packetBytes)"
statistic scenarioPRJP1.node[60].app 	endToEndDelay:histogram
field count 156
field mean 1.3520875790022
field stddev 2.944180648126
field sum 210.92566232434
field sqrsum 1628.7609198855
field min 0.000964591407
field max 15.12111305116
attr interpolationmode  none
attr source  messageAge(rcvdPk)
attr title  "delay, histogram"
attr unit  s
bin	-INF	0
bin	-7.5591096384695	0
bin	-6.5510997411526	0
bin	-5.5430898438358	0
bin	-4.5350799465189	0
bin	-3.527070049202	0
bin	-2.5190601518852	0
bin	-1.5110502545683	0
bin	-0.50304035725143	104
bin	0.50496954006543	18
bin	1.5129794373823	7
bin	2.5209893346992	9
bin	3.528999232016	5
bin	4.5370091293329	1
bin	5.5450190266498	1
bin	6.5530289239666	0
bin	7.5610388212835	2
bin	8.5690487186004	3
bin	9.5770586159172	2
bin	10.585068513234	0
bin	11.593078410551	0
bin	12.601088307868	1
bin	13.609098205185	2
bin	14.617108102502	1
bin	15.625117999818	0
bin	16.633127897135	0
bin	17.641137794452	0
bin	18.649147691769	0
bin	19.657157589086	0
bin	20.665167486403	0
bin	21.67317738372	0
bin	22.681187281037	0
scalar scenarioPRJP1.node[60].app 	sentPk:count 	2624
attr interpolationmode  none
attr source  sentPk
attr title  "packets sent, count"
scalar scenarioPRJP1.node[60].app 	sentPk:sum(packetBytes) 	1343488
attr interpolationmode  none
attr source  sentPk
attr title  "packets sent, sum(packetBytes)"
scalar scenarioPRJP1.node[60].udp 	droppedPkBadChecksum:count 	0
attr interpolationmode  none
attr title  "packets dropped (checksum error), count"
scalar scenarioPRJP1.node[60].udp 	droppedPkWrongPort:count 	0
attr interpolationmode  none
attr title  "packets dropped (wrong port), count"
scalar scenarioPRJP1.node[60].udp 	passedUpPk:count 	165
attr interpolationmode  none
attr title  "packets passed up, count"
scalar scenarioPRJP1.node[60].udp 	rcvdPk:count 	165
attr interpolationmode  none
attr source  rcvdPk
attr title  "packets received, count"
scalar scenarioPRJP1.node[60].udp 	rcvdPk:sum(packetBytes) 	85800
attr interpolationmode  none
attr source  rcvdPk
attr title  "packets received, sum(packetBytes)"
scalar scenarioPRJP1.node[60].udp 	sentPk:count 	2624
attr interpolationmode  none
attr source  sentPk
attr title  "packets sent, count"
scalar scenarioPRJP1.node[60].udp 	sentPk:sum(packetBytes) 	1364480
attr interpolationmode  none
attr source  sentPk
attr title  "packets sent, sum(packetBytes)"
scalar scenarioPRJP1.node[60].networkLayer.arp 	failedARPResolution:count 	13
attr title  "ARP failed resolutions, count"
scalar scenarioPRJP1.node[60].networkLayer.arp 	completedARPResolution:count 	1236
attr title  "ARP completed resolutions, count"
scalar scenarioPRJP1.node[60].networkLayer.arp 	initiatedARPResolution:count 	78
attr title  "ARP initiated resolutions, count"
scalar scenarioPRJP1.node[60].networkLayer.arp 	sentReply:count 	54
attr title  "ARP replies sent, count"
scalar scenarioPRJP1.node[60].networkLayer.arp 	sentReq:count 	128
attr title  "ARP request sent, count"
scalar scenarioPRJP1.node[60].mobility 	startTime 	7.3
scalar scenarioPRJP1.node[60].mobility 	totalTime 	942.7
scalar scenarioPRJP1.node[60].mobility 	stopTime 	950
scalar scenarioPRJP1.node[60].mobility 	minSpeed 	2.475598877175e-13
scalar scenarioPRJP1.node[60].mobility 	maxSpeed 	16.114990932227
scalar scenarioPRJP1.node[60].mobility 	totalDistance 	9293.0189420798
scalar scenarioPRJP1.node[60].mobility 	totalCO2Emission 	2292.9863158898
scalar scenarioPRJP1.node[60].wlan.mgmt 	dataQueueLen:max 	13
attr interpolationmode  sample-hold
attr title  "data queue length, max"
scalar scenarioPRJP1.node[60].wlan.mgmt 	dataQueueLen:timeavg 	0.0021054605596839
attr interpolationmode  sample-hold
attr title  "data queue length, timeavg"
scalar scenarioPRJP1.node[60].wlan.mgmt 	dropPkByQueue:count 	0
attr interpolationmode  none
attr source  dropPkByQueue
attr title  "packets dropped by queue, count"
scalar scenarioPRJP1.node[60].wlan.mgmt 	dropPkByQueue:sum(packetBytes) 	0
attr interpolationmode  none
attr source  dropPkByQueue
attr title  "packets dropped by queue, sum(packetBytes)"
scalar scenarioPRJP1.node[60].wlan.mac 	"number of received packets" 	14152
scalar scenarioPRJP1.node[60].wlan.mac 	"number of collisions" 	63031
scalar scenarioPRJP1.node[60].wlan.mac 	"number of internal collisions" 	0
scalar scenarioPRJP1.node[60].wlan.mac 	"number of retry for AC 0" 	30051
scalar scenarioPRJP1.node[60].wlan.mac 	"number of retry for AC 1" 	0
scalar scenarioPRJP1.node[60].wlan.mac 	"number of retry for AC 2" 	0
scalar scenarioPRJP1.node[60].wlan.mac 	"number of retry for AC 3" 	0
scalar scenarioPRJP1.node[60].wlan.mac 	"sent and received bits" 	20251264
scalar scenarioPRJP1.node[60].wlan.mac 	"sent packet within AC 0" 	4606
scalar scenarioPRJP1.node[60].wlan.mac 	"sent packet within AC 1" 	0
scalar scenarioPRJP1.node[60].wlan.mac 	"sent packet within AC 2" 	0
scalar scenarioPRJP1.node[60].wlan.mac 	"sent packet within AC 3" 	0
scalar scenarioPRJP1.node[60].wlan.mac 	"sent in TXOP " 	0
scalar scenarioPRJP1.node[60].wlan.mac 	"sentWithoutRetry AC 0" 	4127
scalar scenarioPRJP1.node[60].wlan.mac 	"sentWithoutRetry AC 1" 	0
scalar scenarioPRJP1.node[60].wlan.mac 	"sentWithoutRetry AC 2" 	0
scalar scenarioPRJP1.node[60].wlan.mac 	"sentWithoutRetry AC 3" 	0
scalar scenarioPRJP1.node[60].wlan.mac 	"numGivenUp AC 0" 	4831
scalar scenarioPRJP1.node[60].wlan.mac 	"numGivenUp AC 1" 	0
scalar scenarioPRJP1.node[60].wlan.mac 	"numGivenUp AC 2" 	0
scalar scenarioPRJP1.node[60].wlan.mac 	"numGivenUp AC 3" 	0
scalar scenarioPRJP1.node[60].wlan.mac 	"numDropped AC 0" 	42
scalar scenarioPRJP1.node[60].wlan.mac 	"numDropped AC 1" 	0
scalar scenarioPRJP1.node[60].wlan.mac 	"numDropped AC 2" 	0
scalar scenarioPRJP1.node[60].wlan.mac 	"numDropped AC 3" 	0
scalar scenarioPRJP1.node[60].wlan.mac 	rcvdPkFromLL:count 	301131
attr interpolationmode  none
attr source  packetReceivedFromLower
attr title  "packets received from lower layer, count"
scalar scenarioPRJP1.node[60].wlan.mac 	rcvdPkFromLL:sum(packetBytes) 	70887984
attr interpolationmode  none
attr source  packetReceivedFromLower
attr title  "packets received from lower layer, sum(packetBytes)"
scalar scenarioPRJP1.node[60].wlan.mac 	sentDownPk:count 	68332
attr interpolationmode  none
attr source  packetSentToLower
attr title  "packets sent to lower layer, count"
scalar scenarioPRJP1.node[60].wlan.mac 	sentDownPk:sum(packetBytes) 	15411428
attr interpolationmode  none
attr source  packetSentToLower
attr title  "packets sent to lower layer, sum(packetBytes)"
scalar scenarioPRJP1.node[60].wlan.mac 	rcvdPkFromHL:count 	24172
attr interpolationmode  none
attr source  packetReceivedFromUpper
attr title  "packets received from higher layer, count"
scalar scenarioPRJP1.node[60].wlan.mac 	rcvdPkFromHL:sum(packetBytes) 	4281640
attr interpolationmode  none
attr source  packetReceivedFromUpper
attr title  "packets received from higher layer, sum(packetBytes)"
scalar scenarioPRJP1.node[60].wlan.mac 	passedUpPk:count 	52106
attr interpolationmode  none
attr source  packetSentToUpper
attr title  "packets passed to higher layer, count"
scalar scenarioPRJP1.node[60].wlan.mac 	passedUpPk:sum(packetBytes) 	5024904
attr interpolationmode  none
attr source  packetSentToUpper
attr title  "packets passed to higher layer, sum(packetBytes)"
statistic scenarioPRJP1.node[60].wlan.radio 	radioChannel:histogram
field count 1
field mean 3
field stddev nan
field sum 3
field sqrsum 9
field min 3
field max 3
attr interpolationmode  sample-hold
attr source  radioChannelChanged
attr title  "Radio channel, histogram"
bin	-INF	0
bin	2	0
bin	3	1
bin	4	0
scalar scenarioPRJP1.node[60].wlan.radio 	transmissionState:count 	273328
attr interpolationmode  sample-hold
attr source  transmissionStateChanged
attr title  "Radio transmission state, count"
scalar scenarioPRJP1.node[60].wlan.radio 	receptionState:count 	752646
attr interpolationmode  sample-hold
attr source  receptionStateChanged
attr title  "Radio reception state, count"
scalar scenarioPRJP1.node[60].wlan.radio 	radioMode:count 	136666
attr interpolationmode  sample-hold
attr source  radioModeChanged
attr title  "Radio mode, count"
statistic scenarioPRJP1.node[60].wlan.radio 	symbolErrorRate:histogram
field count 0
field mean nan
field stddev nan
field sum 0
field sqrsum 0
field min nan
field max nan
attr source  symbolErrorRate
attr title  "Symbol error rate, histogram"
bin	-INF	0
bin	-0.5	0
bin	-0.46666666666667	0
bin	-0.43333333333333	0
bin	-0.4	0
bin	-0.36666666666667	0
bin	-0.33333333333333	0
bin	-0.3	0
bin	-0.26666666666667	0
bin	-0.23333333333333	0
bin	-0.2	0
bin	-0.16666666666667	0
bin	-0.13333333333333	0
bin	-0.1	0
bin	-0.066666666666667	0
bin	-0.033333333333333	0
bin	0	0
bin	0.033333333333333	0
bin	0.066666666666667	0
bin	0.1	0
bin	0.13333333333333	0
bin	0.16666666666667	0
bin	0.2	0
bin	0.23333333333333	0
bin	0.26666666666667	0
bin	0.3	0
bin	0.33333333333333	0
bin	0.36666666666667	0
bin	0.4	0
bin	0.43333333333333	0
bin	0.46666666666667	0
bin	0.5	0
statistic scenarioPRJP1.node[60].wlan.radio 	bitErrorRate:histogram
field count 0
field mean nan
field stddev nan
field sum 0
field sqrsum 0
field min nan
field max nan
attr source  bitErrorRate
attr title  "Bit error rate, histogram"
bin	-INF	0
bin	-0.5	0
bin	-0.46666666666667	0
bin	-0.43333333333333	0
bin	-0.4	0
bin	-0.36666666666667	0
bin	-0.33333333333333	0
bin	-0.3	0
bin	-0.26666666666667	0
bin	-0.23333333333333	0
bin	-0.2	0
bin	-0.16666666666667	0
bin	-0.13333333333333	0
bin	-0.1	0
bin	-0.066666666666667	0
bin	-0.033333333333333	0
bin	0	0
bin	0.033333333333333	0
bin	0.066666666666667	0
bin	0.1	0
bin	0.13333333333333	0
bin	0.16666666666667	0
bin	0.2	0
bin	0.23333333333333	0
bin	0.26666666666667	0
bin	0.3	0
bin	0.33333333333333	0
bin	0.36666666666667	0
bin	0.4	0
bin	0.43333333333333	0
bin	0.46666666666667	0
bin	0.5	0
statistic scenarioPRJP1.node[60].wlan.radio 	packetErrorRate:histogram
field count 301131
field mean 0.19459123319068
field stddev 0.38700030579923
field sum 58597.452641943
field sqrsum 56502.560815497
field min 0
field max 1
attr source  packetErrorRate
attr title  "Packet error rate, histogram"
bin	-INF	0
bin	-0.0023424773195831	0
bin	-0.0020301470103053	0
bin	-0.0017178167010276	0
bin	-0.0014054863917499	0
bin	-0.0010931560824721	0
bin	-0.00078082577319436	0
bin	-0.00046849546391662	0
bin	-0.00015616515463887	218573
bin	0.00015616515463887	2867
bin	0.00046849546391662	1371
bin	0.00078082577319436	994
bin	0.0010931560824721	750
bin	0.0014054863917499	544
bin	0.0017178167010276	500
bin	0.0020301470103053	427
bin	0.0023424773195831	361
bin	0.0026548076288608	320
bin	0.0029671379381386	273
bin	0.0032794682474163	284
bin	0.0035917985566941	199
bin	0.0039041288659718	214
bin	0.0042164591752496	222
bin	0.0045287894845273	199
bin	0.0048411197938051	177
bin	0.0051534501030828	160
bin	0.0054657804123605	158
bin	0.0057781107216383	152
bin	0.006090441030916	146
bin	0.0064027713401938	147
bin	0.0067151016494715	119
bin	0.0070274319587493	71974
statistic scenarioPRJP1.node[60].wlan.radio 	minSNIR:histogram
field count 301131
field mean 3098.4061027438
field stddev 30027.091289806
field sum 933026128.12534
field sqrsum 2.7439759486611e+14
field min 0.00016876751281294
field max 753239.71923441
attr source  minSNIR
attr title  "Min SNIR, histogram"
bin	-INF	0
bin	-144.41620521981	0
bin	-124.82636370138	0
bin	-105.23652218296	0
bin	-85.646680664537	0
bin	-66.056839146115	0
bin	-46.466997627692	0
bin	-26.877156109269	0
bin	-7.2873145908468	125951
bin	12.302526927576	37662
bin	31.892368445999	15121
bin	51.482209964421	9152
bin	71.072051482844	6613
bin	90.661893001267	5575
bin	110.25173451969	5021
bin	129.84157603811	5946
bin	149.43141755653	5035
bin	169.02125907496	4136
bin	188.61110059338	3711
bin	208.2009421118	3319
bin	227.79078363023	2837
bin	247.38062514865	2479
bin	266.97046666707	2333
bin	286.56030818549	2117
bin	306.15014970392	1948
bin	325.73999122234	2015
bin	345.32983274076	1799
bin	364.91967425918	1490
bin	384.50951577761	1415
bin	404.09935729603	1164
bin	423.68919881445	1015
bin	443.27904033287	53277
scalar scenarioPRJP1.node[60].lo0.lo 	droppedPkBitError:count 	0
attr interpolationmode  none
attr source  dropPkBitError
attr title  "packets dropped/bit error, count"
scalar scenarioPRJP1.node[60].lo0.lo 	droppedPkBitError:sum(packetBytes) 	0
attr interpolationmode  none
attr source  dropPkBitError
attr title  "packets dropped/bit error, sum(packetBytes)"
scalar scenarioPRJP1.node[60].lo0.lo 	rcvdPkFromHL:count 	165
attr interpolationmode  none
attr source  packetReceivedFromUpper
attr title  "packets received from higher layer, count"
scalar scenarioPRJP1.node[60].lo0.lo 	rcvdPkFromHL:sum(packetBytes) 	85800
attr interpolationmode  none
attr source  packetReceivedFromUpper
attr title  "packets received from higher layer, sum(packetBytes)"
scalar scenarioPRJP1.node[60].lo0.lo 	passedUpPk:count 	165
attr interpolationmode  none
attr source  packetSentToUpper
attr title  "packets passed to higher layer, count"
scalar scenarioPRJP1.node[60].lo0.lo 	passedUpPk:sum(packetBytes) 	85800
attr interpolationmode  none
attr source  packetSentToUpper
attr title  "packets passed to higher layer, sum(packetBytes)"
scalar scenarioPRJP1.node[1].app 	"Total sent" 	2615
scalar scenarioPRJP1.node[1].app 	"Total received" 	153
scalar scenarioPRJP1.node[1].app 	"Total deleted" 	10
scalar scenarioPRJP1.node[1].app 	dropPk:count 	10
attr interpolationmode  none
attr source  dropPk
attr title  "packets dropped, count"
scalar scenarioPRJP1.node[1].app 	dropPk:sum(packetBytes) 	5120
attr interpolationmode  none
attr source  dropPk
attr title  "packets dropped, sum(packetBytes)"
scalar scenarioPRJP1.node[1].app 	outOfOrderPk:count 	22
attr interpolationmode  none
attr source  outOfOrderPk
attr title  "packets received out of order, count"
scalar scenarioPRJP1.node[1].app 	outOfOrderPk:sum(packetBytes) 	11264
attr interpolationmode  none
attr source  outOfOrderPk
attr title  "packets received out of order, sum(packetBytes)"
scalar scenarioPRJP1.node[1].app 	rcvdPk:count 	153
attr interpolationmode  none
attr source  rcvdPk
attr title  "packets received, count"
scalar scenarioPRJP1.node[1].app 	rcvdPk:sum(packetBytes) 	78336
attr interpolationmode  none
attr source  rcvdPk
attr title  "packets received, sum(packetBytes)"
statistic scenarioPRJP1.node[1].app 	endToEndDelay:histogram
field count 153
field mean 2.4896172438067
field stddev 4.4507417744514
field sum 380.91143830242
field sqrsum 3959.3072412736
field min 0.001604112748
field max 19.151032683819
attr interpolationmode  none
attr source  messageAge(rcvdPk)
attr title  "delay, histogram"
attr unit  s
bin	-INF	0
bin	-9.5731101727875	0
bin	-8.2964816013828	0
bin	-7.019853029978	0
bin	-5.7432244585733	0
bin	-4.4665958871686	0
bin	-3.1899673157638	0
bin	-1.9133387443591	0
bin	-0.63671017295437	92
bin	0.63991839845037	14
bin	1.9165469698551	10
bin	3.1931755412598	5
bin	4.4698041126646	10
bin	5.7464326840693	4
bin	7.023061255474	2
bin	8.2996898268788	2
bin	9.5763183982835	3
bin	10.852946969688	1
bin	12.129575541093	1
bin	13.406204112498	1
bin	14.682832683902	5
bin	15.959461255307	0
bin	17.236089826712	1
bin	18.512718398117	2
bin	19.789346969521	0
bin	21.065975540926	0
bin	22.342604112331	0
bin	23.619232683736	0
bin	24.89586125514	0
bin	26.172489826545	0
bin	27.44911839795	0
bin	28.725746969354	0
scalar scenarioPRJP1.node[1].app 	sentPk:count 	2615
attr interpolationmode  none
attr source  sentPk
attr title  "packets sent, count"
scalar scenarioPRJP1.node[1].app 	sentPk:sum(packetBytes) 	1338880
attr interpolationmode  none
attr source  sentPk
attr title  "packets sent, sum(packetBytes)"
scalar scenarioPRJP1.node[1].udp 	droppedPkBadChecksum:count 	0
attr interpolationmode  none
attr title  "packets dropped (checksum error), count"
scalar scenarioPRJP1.node[1].udp 	droppedPkWrongPort:count 	0
attr interpolationmode  none
attr title  "packets dropped (wrong port), count"
scalar scenarioPRJP1.node[1].udp 	passedUpPk:count 	185
attr interpolationmode  none
attr title  "packets passed up, count"
scalar scenarioPRJP1.node[1].udp 	rcvdPk:count 	185
attr interpolationmode  none
attr source  rcvdPk
attr title  "packets received, count"
scalar scenarioPRJP1.node[1].udp 	rcvdPk:sum(packetBytes) 	96200
attr interpolationmode  none
attr source  rcvdPk
attr title  "packets received, sum(packetBytes)"
scalar scenarioPRJP1.node[1].udp 	sentPk:count 	2615
attr interpolationmode  none
attr source  sentPk
attr title  "packets sent, count"
scalar scenarioPRJP1.node[1].udp 	sentPk:sum(packetBytes) 	1359800
attr interpolationmode  none
attr source  sentPk
attr title  "packets sent, sum(packetBytes)"
scalar scenarioPRJP1.node[1].networkLayer.arp 	failedARPResolution:count 	65
attr title  "ARP failed resolutions, count"
scalar scenarioPRJP1.node[1].networkLayer.arp 	completedARPResolution:count 	1110
attr title  "ARP completed resolutions, count"
scalar scenarioPRJP1.node[1].networkLayer.arp 	initiatedARPResolution:count 	131
attr title  "ARP initiated resolutions, count"
scalar scenarioPRJP1.node[1].networkLayer.arp 	sentReply:count 	42
attr title  "ARP replies sent, count"
scalar scenarioPRJP1.node[1].networkLayer.arp 	sentReq:count 	296
attr title  "ARP request sent, count"
scalar scenarioPRJP1.node[1].mobility 	startTime 	0.1
scalar scenarioPRJP1.node[1].mobility 	totalTime 	949.9
scalar scenarioPRJP1.node[1].mobility 	stopTime 	950
scalar scenarioPRJP1.node[1].mobility 	minSpeed 	2.4755322810494e-13
scalar scenarioPRJP1.node[1].mobility 	maxSpeed 	17.690334827398
scalar scenarioPRJP1.node[1].mobility 	totalDistance 	8599.2984935659
scalar scenarioPRJP1.node[1].mobility 	totalCO2Emission 	2455.0172167122
scalar scenarioPRJP1.node[1].wlan.mgmt 	dataQueueLen:max 	23
attr interpolationmode  sample-hold
attr title  "data queue length, max"
scalar scenarioPRJP1.node[1].wlan.mgmt 	dataQueueLen:timeavg 	0.04776666084877
attr interpolationmode  sample-hold
attr title  "data queue length, timeavg"
scalar scenarioPRJP1.node[1].wlan.mgmt 	dropPkByQueue:count 	0
attr interpolationmode  none
attr source  dropPkByQueue
attr title  "packets dropped by queue, count"
scalar scenarioPRJP1.node[1].wlan.mgmt 	dropPkByQueue:sum(packetBytes) 	0
attr interpolationmode  none
attr source  dropPkByQueue
attr title  "packets dropped by queue, sum(packetBytes)"
scalar scenarioPRJP1.node[1].wlan.mac 	"number of received packets" 	12439
scalar scenarioPRJP1.node[1].wlan.mac 	"number of collisions" 	64665
scalar scenarioPRJP1.node[1].wlan.mac 	"number of internal collisions" 	0
scalar scenarioPRJP1.node[1].wlan.mac 	"number of retry for AC 0" 	29089
scalar scenarioPRJP1.node[1].wlan.mac 	"number of retry for AC 1" 	0
scalar scenarioPRJP1.node[1].wlan.mac 	"number of retry for AC 2" 	0
scalar scenarioPRJP1.node[1].wlan.mac 	"number of retry for AC 3" 	0
scalar scenarioPRJP1.node[1].wlan.mac 	"sent and received bits" 	22423680
scalar scenarioPRJP1.node[1].wlan.mac 	"sent packet within AC 0" 	5645
scalar scenarioPRJP1.node[1].wlan.mac 	"sent packet within AC 1" 	0
scalar scenarioPRJP1.node[1].wlan.mac 	"sent packet within AC 2" 	0
scalar scenarioPRJP1.node[1].wlan.mac 	"sent packet within AC 3" 	0
scalar scenarioPRJP1.node[1].wlan.mac 	"sent in TXOP " 	0
scalar scenarioPRJP1.node[1].wlan.mac 	"sentWithoutRetry AC 0" 	5072
scalar scenarioPRJP1.node[1].wlan.mac 	"sentWithoutRetry AC 1" 	0
scalar scenarioPRJP1.node[1].wlan.mac 	"sentWithoutRetry AC 2" 	0
scalar scenarioPRJP1.node[1].wlan.mac 	"sentWithoutRetry AC 3" 	0
scalar scenarioPRJP1.node[1].wlan.mac 	"numGivenUp AC 0" 	4648
scalar scenarioPRJP1.node[1].wlan.mac 	"numGivenUp AC 1" 	0
scalar scenarioPRJP1.node[1].wlan.mac 	"numGivenUp AC 2" 	0
scalar scenarioPRJP1.node[1].wlan.mac 	"numGivenUp AC 3" 	0
scalar scenarioPRJP1.node[1].wlan.mac 	"numDropped AC 0" 	336
scalar scenarioPRJP1.node[1].wlan.mac 	"numDropped AC 1" 	0
scalar scenarioPRJP1.node[1].wlan.mac 	"numDropped AC 2" 	0
scalar scenarioPRJP1.node[1].wlan.mac 	"numDropped AC 3" 	0
scalar scenarioPRJP1.node[1].wlan.mac 	rcvdPkFromLL:count 	315974
attr interpolationmode  none
attr source  packetReceivedFromLower
attr title  "packets received from lower layer, count"
scalar scenarioPRJP1.node[1].wlan.mac 	rcvdPkFromLL:sum(packetBytes) 	71681886
attr interpolationmode  none
attr source  packetReceivedFromLower
attr title  "packets received from lower layer, sum(packetBytes)"
scalar scenarioPRJP1.node[1].wlan.mac 	sentDownPk:count 	67401
attr interpolationmode  none
attr source  packetSentToLower
attr title  "packets sent to lower layer, count"
scalar scenarioPRJP1.node[1].wlan.mac 	sentDownPk:sum(packetBytes) 	15870598
attr interpolationmode  none
attr source  packetSentToLower
attr title  "packets sent to lower layer, sum(packetBytes)"
scalar scenarioPRJP1.node[1].wlan.mac 	rcvdPkFromHL:count 	26209
attr interpolationmode  none
attr source  packetReceivedFromUpper
attr title  "packets received from higher layer, count"
scalar scenarioPRJP1.node[1].wlan.mac 	rcvdPkFromHL:sum(packetBytes) 	4650280
attr interpolationmode  none
attr source  packetReceivedFromUpper
attr title  "packets received from higher layer, sum(packetBytes)"
scalar scenarioPRJP1.node[1].wlan.mac 	passedUpPk:count 	65057
attr interpolationmode  none
attr source  packetSentToUpper
attr title  "packets passed to higher layer, count"
scalar scenarioPRJP1.node[1].wlan.mac 	passedUpPk:sum(packetBytes) 	6167152
attr interpolationmode  none
attr source  packetSentToUpper
attr title  "packets passed to higher layer, sum(packetBytes)"
statistic scenarioPRJP1.node[1].wlan.radio 	radioChannel:histogram
field count 1
field mean 3
field stddev nan
field sum 3
field sqrsum 9
field min 3
field max 3
attr interpolationmode  sample-hold
attr source  radioChannelChanged
attr title  "Radio channel, histogram"
bin	-INF	0
bin	2	0
bin	3	1
bin	4	0
scalar scenarioPRJP1.node[1].wlan.radio 	transmissionState:count 	269604
attr interpolationmode  sample-hold
attr source  transmissionStateChanged
attr title  "Radio transmission state, count"
scalar scenarioPRJP1.node[1].wlan.radio 	receptionState:count 	781334
attr interpolationmode  sample-hold
attr source  receptionStateChanged
attr title  "Radio reception state, count"
scalar scenarioPRJP1.node[1].wlan.radio 	radioMode:count 	134804
attr interpolationmode  sample-hold
attr source  radioModeChanged
attr title  "Radio mode, count"
statistic scenarioPRJP1.node[1].wlan.radio 	symbolErrorRate:histogram
field count 0
field mean nan
field stddev nan
field sum 0
field sqrsum 0
field min nan
field max nan
attr source  symbolErrorRate
attr title  "Symbol error rate, histogram"
bin	-INF	0
bin	-0.5	0
bin	-0.46666666666667	0
bin	-0.43333333333333	0
bin	-0.4	0
bin	-0.36666666666667	0
bin	-0.33333333333333	0
bin	-0.3	0
bin	-0.26666666666667	0
bin	-0.23333333333333	0
bin	-0.2	0
bin	-0.16666666666667	0
bin	-0.13333333333333	0
bin	-0.1	0
bin	-0.066666666666667	0
bin	-0.033333333333333	0
bin	0	0
bin	0.033333333333333	0
bin	0.066666666666667	0
bin	0.1	0
bin	0.13333333333333	0
bin	0.16666666666667	0
bin	0.2	0
bin	0.23333333333333	0
bin	0.26666666666667	0
bin	0.3	0
bin	0.33333333333333	0
bin	0.36666666666667	0
bin	0.4	0
bin	0.43333333333333	0
bin	0.46666666666667	0
bin	0.5	0
statistic scenarioPRJP1.node[1].wlan.radio 	bitErrorRate:histogram
field count 0
field mean nan
field stddev nan
field sum 0
field sqrsum 0
field min nan
field max nan
attr source  bitErrorRate
attr title  "Bit error rate, histogram"
bin	-INF	0
bin	-0.5	0
bin	-0.46666666666667	0
bin	-0.43333333333333	0
bin	-0.4	0
bin	-0.36666666666667	0
bin	-0.33333333333333	0
bin	-0.3	0
bin	-0.26666666666667	0
bin	-0.23333333333333	0
bin	-0.2	0
bin	-0.16666666666667	0
bin	-0.13333333333333	0
bin	-0.1	0
bin	-0.066666666666667	0
bin	-0.033333333333333	0
bin	0	0
bin	0.033333333333333	0
bin	0.066666666666667	0
bin	0.1	0
bin	0.13333333333333	0
bin	0.16666666666667	0
bin	0.2	0
bin	0.23333333333333	0
bin	0.26666666666667	0
bin	0.3	0
bin	0.33333333333333	0
bin	0.36666666666667	0
bin	0.4	0
bin	0.43333333333333	0
bin	0.46666666666667	0
bin	0.5	0
statistic scenarioPRJP1.node[1].wlan.radio 	packetErrorRate:histogram
field count 315974
field mean 0.18967774460151
field stddev 0.38386061594334
field sum 59933.235672716
field sqrsum 57926.297848092
field min 0
field max 1
attr source  packetErrorRate
attr title  "Packet error rate, histogram"
bin	-INF	0
bin	-9.6784140756423e-05	0
bin	-8.3879588655567e-05	0
bin	-7.097503655471e-05	0
bin	-5.8070484453854e-05	0
bin	-4.5165932352997e-05	0
bin	-3.2261380252141e-05	0
bin	-1.9356828151285e-05	0
bin	-6.4522760504282e-06	225413
bin	6.4522760504282e-06	2434
bin	1.9356828151285e-05	1176
bin	3.2261380252141e-05	730
bin	4.5165932352997e-05	571
bin	5.8070484453854e-05	463
bin	7.097503655471e-05	409
bin	8.3879588655567e-05	358
bin	9.6784140756423e-05	274
bin	0.00010968869285728	274
bin	0.00012259324495814	260
bin	0.00013549779705899	234
bin	0.00014840234915985	223
bin	0.0001613069012607	159
bin	0.00017421145336156	170
bin	0.00018711600546242	189
bin	0.00020002055756327	167
bin	0.00021292510966413	142
bin	0.00022582966176499	156
bin	0.00023873421386584	104
bin	0.0002516387659667	115
bin	0.00026454331806756	105
bin	0.00027744787016841	126
bin	0.00029035242226927	81722
statistic scenarioPRJP1.node[1].wlan.radio 	minSNIR:histogram
field count 315974
field mean 3822.9882434587
field stddev 35068.106035043
field sum 1207964887.2386
field sqrsum 3.9319280295645e+14
field min 0.0001671668338614
field max 932539.97897248
attr source  minSNIR
attr title  "Min SNIR, histogram"
bin	-INF	0
bin	-45342.699095344	0
bin	-39296.600882902	0
bin	-33250.50267046	0
bin	-27204.404458018	0
bin	-21158.306245576	0
bin	-15112.208033133	0
bin	-9066.1098206912	0
bin	-3020.011608249	288679
bin	3026.0866041932	12973
bin	9072.1848166354	5325
bin	15118.283029078	1957
bin	21164.38124152	997
bin	27210.479453962	555
bin	33256.577666404	550
bin	39302.675878846	492
bin	45348.774091289	422
bin	51394.872303731	333
bin	57440.970516173	286
bin	63487.068728615	235
bin	69533.166941058	198
bin	75579.2651535	226
bin	81625.363365942	195
bin	87671.461578384	129
bin	93717.559790826	160
bin	99763.658003269	85
bin	105809.75621571	79
bin	111855.85442815	92
bin	117901.9526406	99
bin	123948.05085304	56
bin	129994.14906548	60
bin	136040.24727792	1791
scalar scenarioPRJP1.node[1].lo0.lo 	droppedPkBitError:count 	0
attr interpolationmode  none
attr source  dropPkBitError
attr title  "packets dropped/bit error, count"
scalar scenarioPRJP1.node[1].lo0.lo 	droppedPkBitError:sum(packetBytes) 	0
attr interpolationmode  none
attr source  dropPkBitError
attr title  "packets dropped/bit error, sum(packetBytes)"
scalar scenarioPRJP1.node[1].lo0.lo 	rcvdPkFromHL:count 	185
attr interpolationmode  none
attr source  packetReceivedFromUpper
attr title  "packets received from higher layer, count"
scalar scenarioPRJP1.node[1].lo0.lo 	rcvdPkFromHL:sum(packetBytes) 	96200
attr interpolationmode  none
attr source  packetReceivedFromUpper
attr title  "packets received from higher layer, sum(packetBytes)"
scalar scenarioPRJP1.node[1].lo0.lo 	passedUpPk:count 	185
attr interpolationmode  none
attr source  packetSentToUpper
attr title  "packets passed to higher layer, count"
scalar scenarioPRJP1.node[1].lo0.lo 	passedUpPk:sum(packetBytes) 	96200
attr interpolationmode  none
attr source  packetSentToUpper
attr title  "packets passed to higher layer, sum(packetBytes)"
scalar scenarioPRJP1.node[21].app 	"Total sent" 	2596
scalar scenarioPRJP1.node[21].app 	"Total received" 	175
scalar scenarioPRJP1.node[21].app 	"Total deleted" 	6
scalar scenarioPRJP1.node[21].app 	dropPk:count 	6
attr interpolationmode  none
attr source  dropPk
attr title  "packets dropped, count"
scalar scenarioPRJP1.node[21].app 	dropPk:sum(packetBytes) 	3072
attr interpolationmode  none
attr source  dropPk
attr title  "packets dropped, sum(packetBytes)"
scalar scenarioPRJP1.node[21].app 	outOfOrderPk:count 	32
attr interpolationmode  none
attr source  outOfOrderPk
attr title  "packets received out of order, count"
scalar scenarioPRJP1.node[21].app 	outOfOrderPk:sum(packetBytes) 	16384
attr interpolationmode  none
attr source  outOfOrderPk
attr title  "packets received out of order, sum(packetBytes)"
scalar scenarioPRJP1.node[21].app 	rcvdPk:count 	175
attr interpolationmode  none
attr source  rcvdPk
attr title  "packets received, count"
scalar scenarioPRJP1.node[21].app 	rcvdPk:sum(packetBytes) 	89600
attr interpolationmode  none
attr source  rcvdPk
attr title  "packets received, sum(packetBytes)"
statistic scenarioPRJP1.node[21].app 	endToEndDelay:histogram
field count 175
field mean 1.3285283324824
field stddev 2.812806698613
field sum 232.49245818442
field sqrsum 1685.5402029211
field min 0.001016106034
field max 16.695150853622
attr interpolationmode  none
attr source  messageAge(rcvdPk)
attr title  "delay, histogram"
attr unit  s
bin	-INF	0
bin	-8.34605126776	0
bin	-7.2331089512541	0
bin	-6.1201666347483	0
bin	-5.0072243182424	0
bin	-3.8942820017365	0
bin	-2.7813396852307	0
bin	-1.6683973687248	0
bin	-0.55545505221893	112
bin	0.55748726428693	31
bin	1.6704295807928	12
bin	2.7833718972987	1
bin	3.8963142138045	3
bin	5.0092565303104	2
bin	6.1221988468163	3
bin	7.2351411633221	1
bin	8.348083479828	3
bin	9.4610257963339	3
bin	10.57396811284	1
bin	11.686910429346	1
bin	12.799852745851	1
bin	13.912795062357	0
bin	15.025737378863	0
bin	16.138679695369	1
bin	17.251622011875	0
bin	18.364564328381	0
bin	19.477506644887	0
bin	20.590448961393	0
bin	21.703391277898	0
bin	22.816333594404	0
bin	23.92927591091	0
bin	25.042218227416	0
scalar scenarioPRJP1.node[21].app 	sentPk:count 	2596
attr interpolationmode  none
attr source  sentPk
attr title  "packets sent, count"
scalar scenarioPRJP1.node[21].app 	sentPk:sum(packetBytes) 	1329152
attr interpolationmode  none
attr source  sentPk
attr title  "packets sent, sum(packetBytes)"
scalar scenarioPRJP1.node[21].udp 	droppedPkBadChecksum:count 	0
attr interpolationmode  none
attr title  "packets dropped (checksum error), count"
scalar scenarioPRJP1.node[21].udp 	droppedPkWrongPort:count 	0
attr interpolationmode  none
attr title  "packets dropped (wrong port), count"
scalar scenarioPRJP1.node[21].udp 	passedUpPk:count 	213
attr interpolationmode  none
attr title  "packets passed up, count"
scalar scenarioPRJP1.node[21].udp 	rcvdPk:count 	213
attr interpolationmode  none
attr source  rcvdPk
attr title  "packets received, count"
scalar scenarioPRJP1.node[21].udp 	rcvdPk:sum(packetBytes) 	110760
attr interpolationmode  none
attr source  rcvdPk
attr title  "packets received, sum(packetBytes)"
scalar scenarioPRJP1.node[21].udp 	sentPk:count 	2596
attr interpolationmode  none
attr source  sentPk
attr title  "packets sent, count"
scalar scenarioPRJP1.node[21].udp 	sentPk:sum(packetBytes) 	1349920
attr interpolationmode  none
attr source  sentPk
attr title  "packets sent, sum(packetBytes)"
scalar scenarioPRJP1.node[21].networkLayer.arp 	failedARPResolution:count 	46
attr title  "ARP failed resolutions, count"
scalar scenarioPRJP1.node[21].networkLayer.arp 	completedARPResolution:count 	1850
attr title  "ARP completed resolutions, count"
scalar scenarioPRJP1.node[21].networkLayer.arp 	initiatedARPResolution:count 	112
attr title  "ARP initiated resolutions, count"
scalar scenarioPRJP1.node[21].networkLayer.arp 	sentReply:count 	58
attr title  "ARP replies sent, count"
scalar scenarioPRJP1.node[21].networkLayer.arp 	sentReq:count 	238
attr title  "ARP request sent, count"
scalar scenarioPRJP1.node[21].mobility 	startTime 	2.5
scalar scenarioPRJP1.node[21].mobility 	totalTime 	947.5
scalar scenarioPRJP1.node[21].mobility 	stopTime 	950
scalar scenarioPRJP1.node[21].mobility 	minSpeed 	2.4754193412337e-13
scalar scenarioPRJP1.node[21].mobility 	maxSpeed 	18.239505228671
scalar scenarioPRJP1.node[21].mobility 	totalDistance 	7827.2004440258
scalar scenarioPRJP1.node[21].mobility 	totalCO2Emission 	2379.7264835754
scalar scenarioPRJP1.node[21].wlan.mgmt 	dataQueueLen:max 	76
attr interpolationmode  sample-hold
attr title  "data queue length, max"
scalar scenarioPRJP1.node[21].wlan.mgmt 	dataQueueLen:timeavg 	0.22969622597133
attr interpolationmode  sample-hold
attr title  "data queue length, timeavg"
scalar scenarioPRJP1.node[21].wlan.mgmt 	dropPkByQueue:count 	0
attr interpolationmode  none
attr source  dropPkByQueue
attr title  "packets dropped by queue, count"
scalar scenarioPRJP1.node[21].wlan.mgmt 	dropPkByQueue:sum(packetBytes) 	0
attr interpolationmode  none
attr source  dropPkByQueue
attr title  "packets dropped by queue, sum(packetBytes)"
scalar scenarioPRJP1.node[21].wlan.mac 	"number of received packets" 	14184
scalar scenarioPRJP1.node[21].wlan.mac 	"number of collisions" 	78298
scalar scenarioPRJP1.node[21].wlan.mac 	"number of internal collisions" 	0
scalar scenarioPRJP1.node[21].wlan.mac 	"number of retry for AC 0" 	33396
scalar scenarioPRJP1.node[21].wlan.mac 	"number of retry for AC 1" 	0
scalar scenarioPRJP1.node[21].wlan.mac 	"number of retry for AC 2" 	0
scalar scenarioPRJP1.node[21].wlan.mac 	"number of retry for AC 3" 	0
scalar scenarioPRJP1.node[21].wlan.mac 	"sent and received bits" 	21527616
scalar scenarioPRJP1.node[21].wlan.mac 	"sent packet within AC 0" 	5883
scalar scenarioPRJP1.node[21].wlan.mac 	"sent packet within AC 1" 	0
scalar scenarioPRJP1.node[21].wlan.mac 	"sent packet within AC 2" 	0
scalar scenarioPRJP1.node[21].wlan.mac 	"sent packet within AC 3" 	0
scalar scenarioPRJP1.node[21].wlan.mac 	"sent in TXOP " 	0
scalar scenarioPRJP1.node[21].wlan.mac 	"sentWithoutRetry AC 0" 	5273
scalar scenarioPRJP1.node[21].wlan.mac 	"sentWithoutRetry AC 1" 	0
scalar scenarioPRJP1.node[21].wlan.mac 	"sentWithoutRetry AC 2" 	0
scalar scenarioPRJP1.node[21].wlan.mac 	"sentWithoutRetry AC 3" 	0
scalar scenarioPRJP1.node[21].wlan.mac 	"numGivenUp AC 0" 	5352
scalar scenarioPRJP1.node[21].wlan.mac 	"numGivenUp AC 1" 	0
scalar scenarioPRJP1.node[21].wlan.mac 	"numGivenUp AC 2" 	0
scalar scenarioPRJP1.node[21].wlan.mac 	"numGivenUp AC 3" 	0
scalar scenarioPRJP1.node[21].wlan.mac 	"numDropped AC 0" 	347
scalar scenarioPRJP1.node[21].wlan.mac 	"numDropped AC 1" 	0
scalar scenarioPRJP1.node[21].wlan.mac 	"numDropped AC 2" 	0
scalar scenarioPRJP1.node[21].wlan.mac 	"numDropped AC 3" 	0
scalar scenarioPRJP1.node[21].wlan.mac 	rcvdPkFromLL:count 	389484
attr interpolationmode  none
attr source  packetReceivedFromLower
attr title  "packets received from lower layer, count"
scalar scenarioPRJP1.node[21].wlan.mac 	rcvdPkFromLL:sum(packetBytes) 	92861192
attr interpolationmode  none
attr source  packetReceivedFromLower
attr title  "packets received from lower layer, sum(packetBytes)"
scalar scenarioPRJP1.node[21].wlan.mac 	sentDownPk:count 	72199
attr interpolationmode  none
attr source  packetSentToLower
attr title  "packets sent to lower layer, count"
scalar scenarioPRJP1.node[21].wlan.mac 	sentDownPk:sum(packetBytes) 	17460592
attr interpolationmode  none
attr source  packetSentToLower
[...]
attr source  packetSentToUpper
attr title  "packets passed to higher layer, count"
scalar scenarioPRJP1.node[57].wlan.mac 	passedUpPk:sum(packetBytes) 	5269636
attr interpolationmode  none
attr source  packetSentToUpper
attr title  "packets passed to higher layer, sum(packetBytes)"
statistic scenarioPRJP1.node[57].wlan.radio 	radioChannel:histogram
field count 1
field mean 3
field stddev nan
field sum 3
field sqrsum 9
field min 3
field max 3
attr interpolationmode  sample-hold
attr source  radioChannelChanged
attr title  "Radio channel, histogram"
bin	-INF	0
bin	2	0
bin	3	1
bin	4	0
scalar scenarioPRJP1.node[57].wlan.radio 	transmissionState:count 	268292
attr interpolationmode  sample-hold
attr source  transmissionStateChanged
attr title  "Radio transmission state, count"
scalar scenarioPRJP1.node[57].wlan.radio 	receptionState:count 	809349
attr interpolationmode  sample-hold
attr source  receptionStateChanged
attr title  "Radio reception state, count"
scalar scenarioPRJP1.node[57].wlan.radio 	radioMode:count 	134148
attr interpolationmode  sample-hold
attr source  radioModeChanged
attr title  "Radio mode, count"
statistic scenarioPRJP1.node[57].wlan.radio 	symbolErrorRate:histogram
field count 0
field mean nan
field stddev nan
field sum 0
field sqrsum 0
field min nan
field max nan
attr source  symbolErrorRate
attr title  "Symbol error rate, histogram"
bin	-INF	0
bin	-0.5	0
bin	-0.46666666666667	0
bin	-0.43333333333333	0
bin	-0.4	0
bin	-0.36666666666667	0
bin	-0.33333333333333	0
bin	-0.3	0
bin	-0.26666666666667	0
bin	-0.23333333333333	0
bin	-0.2	0
bin	-0.16666666666667	0
bin	-0.13333333333333	0
bin	-0.1	0
bin	-0.066666666666667	0
bin	-0.033333333333333	0
bin	0	0
bin	0.033333333333333	0
bin	0.066666666666667	0
bin	0.1	0
bin	0.13333333333333	0
bin	0.16666666666667	0
bin	0.2	0
bin	0.23333333333333	0
bin	0.26666666666667	0
bin	0.3	0
bin	0.33333333333333	0
bin	0.36666666666667	0
bin	0.4	0
bin	0.43333333333333	0
bin	0.46666666666667	0
bin	0.5	0
statistic scenarioPRJP1.node[57].wlan.radio 	bitErrorRate:histogram
field count 0
field mean nan
field stddev nan
field sum 0
field sqrsum 0
field min nan
field max nan
attr source  bitErrorRate
attr title  "Bit error rate, histogram"
bin	-INF	0
bin	-0.5	0
bin	-0.46666666666667	0
bin	-0.43333333333333	0
bin	-0.4	0
bin	-0.36666666666667	0
bin	-0.33333333333333	0
bin	-0.3	0
bin	-0.26666666666667	0
bin	-0.23333333333333	0
bin	-0.2	0
bin	-0.16666666666667	0
bin	-0.13333333333333	0
bin	-0.1	0
bin	-0.066666666666667	0
bin	-0.033333333333333	0
bin	0	0
bin	0.033333333333333	0
bin	0.066666666666667	0
bin	0.1	0
bin	0.13333333333333	0
bin	0.16666666666667	0
bin	0.2	0
bin	0.23333333333333	0
bin	0.26666666666667	0
bin	0.3	0
bin	0.33333333333333	0
bin	0.36666666666667	0
bin	0.4	0
bin	0.43333333333333	0
bin	0.46666666666667	0
bin	0.5	0
statistic scenarioPRJP1.node[57].wlan.radio 	packetErrorRate:histogram
field count 331158
field mean 0.17112108484473
field stddev 0.36863094720118
field sum 56668.116215013
field sqrsum 54697.628663131
field min 0
field max 1
attr source  packetErrorRate
attr title  "Packet error rate, histogram"
bin	-INF	0
bin	-0.5	0
bin	-0.43333333333333	0
bin	-0.36666666666667	0
bin	-0.3	0
bin	-0.23333333333333	0
bin	-0.16666666666667	0
bin	-0.1	0
bin	-0.033333333333333	266339
bin	0.033333333333333	3330
bin	0.1	1638
bin	0.16666666666667	1076
bin	0.23333333333333	876
bin	0.3	730
bin	0.36666666666667	600
bin	0.43333333333333	565
bin	0.5	524
bin	0.56666666666667	485
bin	0.63333333333333	504
bin	0.7	572
bin	0.76666666666667	567
bin	0.83333333333333	625
bin	0.9	1053
bin	0.96666666666667	51674
bin	1.0333333333333	0
bin	1.1	0
bin	1.1666666666667	0
bin	1.2333333333333	0
bin	1.3	0
bin	1.3666666666667	0
bin	1.4333333333333	0
bin	1.5	0
statistic scenarioPRJP1.node[57].wlan.radio 	minSNIR:histogram
field count 331158
field mean 7539.2260216917
field stddev 51579.543091308
field sum 2496675010.8914
field sqrsum 8.9984939462767e+14
field min 0.00016961608708735
field max 1231613.0017974
attr source  minSNIR
attr title  "Min SNIR, histogram"
bin	-INF	0
bin	-1260.5534070663	0
bin	-1092.1554288152	0
bin	-923.75745056419	0
bin	-755.35947231314	0
bin	-586.96149406208	0
bin	-418.56351581103	0
bin	-250.16553755998	0
bin	-81.767559308922	193274
bin	86.630418942131	43258
bin	255.02839719319	16157
bin	423.42637544424	7853
bin	591.82435369529	5469
bin	760.22233194635	3838
bin	928.6203101974	3124
bin	1097.0182884485	2552
bin	1265.4162666995	2262
bin	1433.8142449506	1842
bin	1602.2122232016	1664
bin	1770.6102014527	1504
bin	1939.0081797037	1372
bin	2107.4061579548	1256
bin	2275.8041362058	1309
bin	2444.2021144569	1157
bin	2612.6000927079	1007
bin	2780.998070959	924
bin	2949.39604921	819
bin	3117.7940274611	710
bin	3286.1920057122	752
bin	3454.5899839632	754
bin	3622.9879622143	688
bin	3791.3859404653	37613
scalar scenarioPRJP1.node[57].lo0.lo 	droppedPkBitError:count 	0
attr interpolationmode  none
attr source  dropPkBitError
attr title  "packets dropped/bit error, count"
scalar scenarioPRJP1.node[57].lo0.lo 	droppedPkBitError:sum(packetBytes) 	0
attr interpolationmode  none
attr source  dropPkBitError
attr title  "packets dropped/bit error, sum(packetBytes)"
scalar scenarioPRJP1.node[57].lo0.lo 	rcvdPkFromHL:count 	205
attr interpolationmode  none
attr source  packetReceivedFromUpper
attr title  "packets received from higher layer, count"
scalar scenarioPRJP1.node[57].lo0.lo 	rcvdPkFromHL:sum(packetBytes) 	106600
attr interpolationmode  none
attr source  packetReceivedFromUpper
attr title  "packets received from higher layer, sum(packetBytes)"
scalar scenarioPRJP1.node[57].lo0.lo 	passedUpPk:count 	205
attr interpolationmode  none
attr source  packetSentToUpper
attr title  "packets passed to higher layer, count"
scalar scenarioPRJP1.node[57].lo0.lo 	passedUpPk:sum(packetBytes) 	106600
attr interpolationmode  none
attr source  packetSentToUpper
attr title  "packets passed to higher layer, sum(packetBytes)"
scalar scenarioPRJP1.node[74].app 	"Total sent" 	2626
scalar scenarioPRJP1.node[74].app 	"Total received" 	161
scalar scenarioPRJP1.node[74].app 	"Total deleted" 	6
scalar scenarioPRJP1.node[74].app 	dropPk:count 	6
attr interpolationmode  none
attr source  dropPk
attr title  "packets dropped, count"
scalar scenarioPRJP1.node[74].app 	dropPk:sum(packetBytes) 	3072
attr interpolationmode  none
attr source  dropPk
attr title  "packets dropped, sum(packetBytes)"
scalar scenarioPRJP1.node[74].app 	outOfOrderPk:count 	16
attr interpolationmode  none
attr source  outOfOrderPk
attr title  "packets received out of order, count"
scalar scenarioPRJP1.node[74].app 	outOfOrderPk:sum(packetBytes) 	8192
attr interpolationmode  none
attr source  outOfOrderPk
attr title  "packets received out of order, sum(packetBytes)"
scalar scenarioPRJP1.node[74].app 	rcvdPk:count 	161
attr interpolationmode  none
attr source  rcvdPk
attr title  "packets received, count"
scalar scenarioPRJP1.node[74].app 	rcvdPk:sum(packetBytes) 	82432
attr interpolationmode  none
attr source  rcvdPk
attr title  "packets received, sum(packetBytes)"
statistic scenarioPRJP1.node[74].app 	endToEndDelay:histogram
field count 161
field mean 1.8993037201598
field stddev 4.0680947375724
field sum 305.78789894573
field sqrsum 3228.6872610657
field min 0.001054376328
field max 19.197317616737
attr interpolationmode  none
attr source  messageAge(rcvdPk)
attr title  "delay, histogram"
attr unit  s
bin	-INF	0
bin	-9.5970772438765	0
bin	-8.3173263611826	0
bin	-7.0375754784886	0
bin	-5.7578245957947	0
bin	-4.4780737131008	0
bin	-3.1983228304068	0
bin	-1.9185719477129	0
bin	-0.63882106501897	108
bin	0.64092981767497	18
bin	1.9206807003689	9
bin	3.2004315830628	5
bin	4.4801824657568	3
bin	5.7599333484507	3
bin	7.0396842311446	0
bin	8.3194351138386	3
bin	9.5991859965325	3
bin	10.878936879226	0
bin	12.15868776192	2
bin	13.438438644614	2
bin	14.718189527308	0
bin	15.997940410002	2
bin	17.277691292696	2
bin	18.55744217539	1
bin	19.837193058084	0
bin	21.116943940778	0
bin	22.396694823472	0
bin	23.676445706166	0
bin	24.95619658886	0
bin	26.235947471554	0
bin	27.515698354248	0
bin	28.795449236942	0
scalar scenarioPRJP1.node[74].app 	sentPk:count 	2626
attr interpolationmode  none
attr source  sentPk
attr title  "packets sent, count"
scalar scenarioPRJP1.node[74].app 	sentPk:sum(packetBytes) 	1344512
attr interpolationmode  none
attr source  sentPk
attr title  "packets sent, sum(packetBytes)"
scalar scenarioPRJP1.node[74].udp 	droppedPkBadChecksum:count 	0
attr interpolationmode  none
attr title  "packets dropped (checksum error), count"
scalar scenarioPRJP1.node[74].udp 	droppedPkWrongPort:count 	0
attr interpolationmode  none
attr title  "packets dropped (wrong port), count"
scalar scenarioPRJP1.node[74].udp 	passedUpPk:count 	183
attr interpolationmode  none
attr title  "packets passed up, count"
scalar scenarioPRJP1.node[74].udp 	rcvdPk:count 	183
attr interpolationmode  none
attr source  rcvdPk
attr title  "packets received, count"
scalar scenarioPRJP1.node[74].udp 	rcvdPk:sum(packetBytes) 	95160
attr interpolationmode  none
attr source  rcvdPk
attr title  "packets received, sum(packetBytes)"
scalar scenarioPRJP1.node[74].udp 	sentPk:count 	2626
attr interpolationmode  none
attr source  sentPk
attr title  "packets sent, count"
scalar scenarioPRJP1.node[74].udp 	sentPk:sum(packetBytes) 	1365520
attr interpolationmode  none
attr source  sentPk
attr title  "packets sent, sum(packetBytes)"
scalar scenarioPRJP1.node[74].networkLayer.arp 	failedARPResolution:count 	35
attr title  "ARP failed resolutions, count"
scalar scenarioPRJP1.node[74].networkLayer.arp 	completedARPResolution:count 	1564
attr title  "ARP completed resolutions, count"
scalar scenarioPRJP1.node[74].networkLayer.arp 	initiatedARPResolution:count 	104
attr title  "ARP initiated resolutions, count"
scalar scenarioPRJP1.node[74].networkLayer.arp 	sentReply:count 	60
attr title  "ARP replies sent, count"
scalar scenarioPRJP1.node[74].networkLayer.arp 	sentReq:count 	209
attr title  "ARP request sent, count"
scalar scenarioPRJP1.node[74].mobility 	startTime 	7.4
scalar scenarioPRJP1.node[74].mobility 	totalTime 	942.6
scalar scenarioPRJP1.node[74].mobility 	stopTime 	950
scalar scenarioPRJP1.node[74].mobility 	minSpeed 	2.475602561769e-13
scalar scenarioPRJP1.node[74].mobility 	maxSpeed 	16.616069294134
scalar scenarioPRJP1.node[74].mobility 	totalDistance 	8078.3199673845
scalar scenarioPRJP1.node[74].mobility 	totalCO2Emission 	2255.4203374853
scalar scenarioPRJP1.node[74].wlan.mgmt 	dataQueueLen:max 	79
attr interpolationmode  sample-hold
attr title  "data queue length, max"
scalar scenarioPRJP1.node[74].wlan.mgmt 	dataQueueLen:timeavg 	0.2522497913484
attr interpolationmode  sample-hold
attr title  "data queue length, timeavg"
scalar scenarioPRJP1.node[74].wlan.mgmt 	dropPkByQueue:count 	0
attr interpolationmode  none
attr source  dropPkByQueue
attr title  "packets dropped by queue, count"
scalar scenarioPRJP1.node[74].wlan.mgmt 	dropPkByQueue:sum(packetBytes) 	0
attr interpolationmode  none
attr source  dropPkByQueue
attr title  "packets dropped by queue, sum(packetBytes)"
scalar scenarioPRJP1.node[74].wlan.mac 	"number of received packets" 	13159
scalar scenarioPRJP1.node[74].wlan.mac 	"number of collisions" 	64372
scalar scenarioPRJP1.node[74].wlan.mac 	"number of internal collisions" 	0
scalar scenarioPRJP1.node[74].wlan.mac 	"number of retry for AC 0" 	31991
scalar scenarioPRJP1.node[74].wlan.mac 	"number of retry for AC 1" 	0
scalar scenarioPRJP1.node[74].wlan.mac 	"number of retry for AC 2" 	0
scalar scenarioPRJP1.node[74].wlan.mac 	"number of retry for AC 3" 	0
scalar scenarioPRJP1.node[74].wlan.mac 	"sent and received bits" 	20045984
scalar scenarioPRJP1.node[74].wlan.mac 	"sent packet within AC 0" 	5355
scalar scenarioPRJP1.node[74].wlan.mac 	"sent packet within AC 1" 	0
scalar scenarioPRJP1.node[74].wlan.mac 	"sent packet within AC 2" 	0
scalar scenarioPRJP1.node[74].wlan.mac 	"sent packet within AC 3" 	0
scalar scenarioPRJP1.node[74].wlan.mac 	"sent in TXOP " 	0
scalar scenarioPRJP1.node[74].wlan.mac 	"sentWithoutRetry AC 0" 	4779
scalar scenarioPRJP1.node[74].wlan.mac 	"sentWithoutRetry AC 1" 	0
scalar scenarioPRJP1.node[74].wlan.mac 	"sentWithoutRetry AC 2" 	0
scalar scenarioPRJP1.node[74].wlan.mac 	"sentWithoutRetry AC 3" 	0
scalar scenarioPRJP1.node[74].wlan.mac 	"numGivenUp AC 0" 	5124
scalar scenarioPRJP1.node[74].wlan.mac 	"numGivenUp AC 1" 	0
scalar scenarioPRJP1.node[74].wlan.mac 	"numGivenUp AC 2" 	0
scalar scenarioPRJP1.node[74].wlan.mac 	"numGivenUp AC 3" 	0
scalar scenarioPRJP1.node[74].wlan.mac 	"numDropped AC 0" 	339
scalar scenarioPRJP1.node[74].wlan.mac 	"numDropped AC 1" 	0
scalar scenarioPRJP1.node[74].wlan.mac 	"numDropped AC 2" 	0
scalar scenarioPRJP1.node[74].wlan.mac 	"numDropped AC 3" 	0
scalar scenarioPRJP1.node[74].wlan.mac 	rcvdPkFromLL:count 	340143
attr interpolationmode  none
attr source  packetReceivedFromLower
attr title  "packets received from lower layer, count"
scalar scenarioPRJP1.node[74].wlan.mac 	rcvdPkFromLL:sum(packetBytes) 	83334660
attr interpolationmode  none
attr source  packetReceivedFromLower
attr title  "packets received from lower layer, sum(packetBytes)"
scalar scenarioPRJP1.node[74].wlan.mac 	sentDownPk:count 	67228
attr interpolationmode  none
attr source  packetSentToLower
attr title  "packets sent to lower layer, count"
scalar scenarioPRJP1.node[74].wlan.mac 	sentDownPk:sum(packetBytes) 	16612170
attr interpolationmode  none
attr source  packetSentToLower
attr title  "packets sent to lower layer, sum(packetBytes)"
scalar scenarioPRJP1.node[74].wlan.mac 	rcvdPkFromHL:count 	22417
attr interpolationmode  none
attr source  packetReceivedFromUpper
attr title  "packets received from higher layer, count"
scalar scenarioPRJP1.node[74].wlan.mac 	rcvdPkFromHL:sum(packetBytes) 	4509112
attr interpolationmode  none
attr source  packetReceivedFromUpper
attr title  "packets received from higher layer, sum(packetBytes)"
scalar scenarioPRJP1.node[74].wlan.mac 	passedUpPk:count 	47300
attr interpolationmode  none
attr source  packetSentToUpper
attr title  "packets passed to higher layer, count"
scalar scenarioPRJP1.node[74].wlan.mac 	passedUpPk:sum(packetBytes) 	4779456
attr interpolationmode  none
attr source  packetSentToUpper
attr title  "packets passed to higher layer, sum(packetBytes)"
statistic scenarioPRJP1.node[74].wlan.radio 	radioChannel:histogram
field count 1
field mean 3
field stddev nan
field sum 3
field sqrsum 9
field min 3
field max 3
attr interpolationmode  sample-hold
attr source  radioChannelChanged
attr title  "Radio channel, histogram"
bin	-INF	0
bin	2	0
bin	3	1
bin	4	0
scalar scenarioPRJP1.node[74].wlan.radio 	transmissionState:count 	268910
attr interpolationmode  sample-hold
attr source  transmissionStateChanged
attr title  "Radio transmission state, count"
scalar scenarioPRJP1.node[74].wlan.radio 	receptionState:count 	828047
attr interpolationmode  sample-hold
attr source  receptionStateChanged
attr title  "Radio reception state, count"
scalar scenarioPRJP1.node[74].wlan.radio 	radioMode:count 	134457
attr interpolationmode  sample-hold
attr source  radioModeChanged
attr title  "Radio mode, count"
statistic scenarioPRJP1.node[74].wlan.radio 	symbolErrorRate:histogram
field count 0
field mean nan
field stddev nan
field sum 0
field sqrsum 0
field min nan
field max nan
attr source  symbolErrorRate
attr title  "Symbol error rate, histogram"
bin	-INF	0
bin	-0.5	0
bin	-0.46666666666667	0
bin	-0.43333333333333	0
bin	-0.4	0
bin	-0.36666666666667	0
bin	-0.33333333333333	0
bin	-0.3	0
bin	-0.26666666666667	0
bin	-0.23333333333333	0
bin	-0.2	0
bin	-0.16666666666667	0
bin	-0.13333333333333	0
bin	-0.1	0
bin	-0.066666666666667	0
bin	-0.033333333333333	0
bin	0	0
bin	0.033333333333333	0
bin	0.066666666666667	0
bin	0.1	0
bin	0.13333333333333	0
bin	0.16666666666667	0
bin	0.2	0
bin	0.23333333333333	0
bin	0.26666666666667	0
bin	0.3	0
bin	0.33333333333333	0
bin	0.36666666666667	0
bin	0.4	0
bin	0.43333333333333	0
bin	0.46666666666667	0
bin	0.5	0
statistic scenarioPRJP1.node[74].wlan.radio 	bitErrorRate:histogram
field count 0
field mean nan
field stddev nan
field sum 0
field sqrsum 0
field min nan
field max nan
attr source  bitErrorRate
attr title  "Bit error rate, histogram"
bin	-INF	0
bin	-0.5	0
bin	-0.46666666666667	0
bin	-0.43333333333333	0
bin	-0.4	0
bin	-0.36666666666667	0
bin	-0.33333333333333	0
bin	-0.3	0
bin	-0.26666666666667	0
bin	-0.23333333333333	0
bin	-0.2	0
bin	-0.16666666666667	0
bin	-0.13333333333333	0
bin	-0.1	0
bin	-0.066666666666667	0
bin	-0.033333333333333	0
bin	0	0
bin	0.033333333333333	0
bin	0.066666666666667	0
bin	0.1	0
bin	0.13333333333333	0
bin	0.16666666666667	0
bin	0.2	0
bin	0.23333333333333	0
bin	0.26666666666667	0
bin	0.3	0
bin	0.33333333333333	0
bin	0.36666666666667	0
bin	0.4	0
bin	0.43333333333333	0
bin	0.46666666666667	0
bin	0.5	0
statistic scenarioPRJP1.node[74].wlan.radio 	packetErrorRate:histogram
field count 340143
field mean 0.17738629654421
field stddev 0.37323850350879
field sum 60336.707065439
field sqrsum 58087.059973747
field min 0
field max 1
attr source  packetErrorRate
attr title  "Packet error rate, histogram"
bin	-INF	0
bin	-0.5	0
bin	-0.43333333333333	0
bin	-0.36666666666667	0
bin	-0.3	0
bin	-0.23333333333333	0
bin	-0.16666666666667	0
bin	-0.1	0
bin	-0.033333333333333	270474
bin	0.033333333333333	3927
bin	0.1	1775
bin	0.16666666666667	1225
bin	0.23333333333333	966
bin	0.3	814
bin	0.36666666666667	726
bin	0.43333333333333	663
bin	0.5	608
bin	0.56666666666667	564
bin	0.63333333333333	566
bin	0.7	614
bin	0.76666666666667	655
bin	0.83333333333333	785
bin	0.9	1112
bin	0.96666666666667	54669
bin	1.0333333333333	0
bin	1.1	0
bin	1.1666666666667	0
bin	1.2333333333333	0
bin	1.3	0
bin	1.3666666666667	0
bin	1.4333333333333	0
bin	1.5	0
statistic scenarioPRJP1.node[74].wlan.radio 	minSNIR:histogram
field count 340143
field mean 4339.9653512688
field stddev 39918.507825085
field sum 1476208834.4766
field sqrsum 5.4841864115845e+14
field min 0.00014778428331673
field max 753239.71923443
attr source  minSNIR
attr title  "Min SNIR, histogram"
bin	-INF	0
bin	-1920.413943652	0
bin	-1664.1413450969	0
bin	-1407.8687465417	0
bin	-1151.5961479866	0
bin	-895.32354943143	0
bin	-639.05095087628	0
bin	-382.77835232112	0
bin	-126.50575376597	230359
bin	129.76684478918	41815
bin	386.03944334433	11979
bin	642.31204189949	6805
bin	898.58464045464	4758
bin	1154.8572390098	3568
bin	1411.1298375649	2582
bin	1667.4024361201	1986
bin	1923.6750346752	1676
bin	2179.9476332304	1407
bin	2436.2202317856	1280
bin	2692.4928303407	1112
bin	2948.7654288959	1055
bin	3205.038027451	942
bin	3461.3106260062	941
bin	3717.5832245613	757
bin	3973.8558231165	714
bin	4230.1284216716	787
bin	4486.4010202268	680
bin	4742.6736187819	607
bin	4998.9462173371	597
bin	5255.2188158922	892
bin	5511.4914144474	615
bin	5767.7640130025	22229
scalar scenarioPRJP1.node[74].lo0.lo 	droppedPkBitError:count 	0
attr interpolationmode  none
attr source  dropPkBitError
attr title  "packets dropped/bit error, count"
scalar scenarioPRJP1.node[74].lo0.lo 	droppedPkBitError:sum(packetBytes) 	0
attr interpolationmode  none
attr source  dropPkBitError
attr title  "packets dropped/bit error, sum(packetBytes)"
scalar scenarioPRJP1.node[74].lo0.lo 	rcvdPkFromHL:count 	183
attr interpolationmode  none
attr source  packetReceivedFromUpper
attr title  "packets received from higher layer, count"
scalar scenarioPRJP1.node[74].lo0.lo 	rcvdPkFromHL:sum(packetBytes) 	95160
attr interpolationmode  none
attr source  packetReceivedFromUpper
attr title  "packets received from higher layer, sum(packetBytes)"
scalar scenarioPRJP1.node[74].lo0.lo 	passedUpPk:count 	183
attr interpolationmode  none
attr source  packetSentToUpper
attr title  "packets passed to higher layer, count"
scalar scenarioPRJP1.node[74].lo0.lo 	passedUpPk:sum(packetBytes) 	95160
attr interpolationmode  none
attr source  packetSentToUpper
attr title  "packets passed to higher layer, sum(packetBytes)"
