version 2
run DSRUU-TRG-75n-1-20150804-16:11:54-6780
attr configname DSRUU-TRG-75n
attr datetime 20150804-16:11:54
attr experiment DSRUU-TRG-75n
attr inifile omnetpp.ini
attr iterationvars ""
attr iterationvars2 $repetition=1
attr measurement ""
attr network Prj_Part1_propag.scenarioPRJP1
attr processid 6780
attr repetition 1
attr replication #1
attr resultdir results
attr runnumber 1
attr seedset 1

scalar scenarioPRJP1.radioMedium.propagation 	"Arrival computation count" 	400705560
scalar scenarioPRJP1.radioMedium 	"transmission count" 	5414940
scalar scenarioPRJP1.radioMedium 	"radio frame send count" 	400705560
scalar scenarioPRJP1.radioMedium 	"reception computation count" 	394390582
scalar scenarioPRJP1.radioMedium 	"interference computation count" 	997965453
scalar scenarioPRJP1.radioMedium 	"reception decision computation count" 	26284770
scalar scenarioPRJP1.radioMedium 	"listening decision computation count" 	589232480
scalar scenarioPRJP1.radioMedium 	"reception cache hit" 	-112.83911723235
attr unit  %
scalar scenarioPRJP1.radioMedium 	"interference cache hit" 	50
attr unit  %
scalar scenarioPRJP1.radioMedium 	"noise cache hit" 	0
attr unit  %
scalar scenarioPRJP1.radioMedium 	"snir cache hit" 	0
attr unit  %
scalar scenarioPRJP1.radioMedium 	"reception decision cache hit" 	0
attr unit  %
scalar scenarioPRJP1.node[0].app 	"Total sent" 	2606
scalar scenarioPRJP1.node[0].app 	"Total received" 	134
scalar scenarioPRJP1.node[0].app 	"Total deleted" 	6
scalar scenarioPRJP1.node[0].app 	outOfOrderPk:count 	9
attr interpolationmode  none
attr source  outOfOrderPk
attr title  "packets received out of order, count"
scalar scenarioPRJP1.node[0].app 	outOfOrderPk:sum(packetBytes) 	4608
attr interpolationmode  none
attr source  outOfOrderPk
attr title  "packets received out of order, sum(packetBytes)"
scalar scenarioPRJP1.node[0].app 	dropPk:count 	6
attr interpolationmode  none
attr source  dropPk
attr title  "packets dropped, count"
scalar scenarioPRJP1.node[0].app 	dropPk:sum(packetBytes) 	3072
attr interpolationmode  none
attr source  dropPk
attr title  "packets dropped, sum(packetBytes)"
scalar scenarioPRJP1.node[0].app 	sentPk:count 	2606
attr interpolationmode  none
attr source  sentPk
attr title  "packets sent, count"
scalar scenarioPRJP1.node[0].app 	sentPk:sum(packetBytes) 	1334272
attr interpolationmode  none
attr source  sentPk
attr title  "packets sent, sum(packetBytes)"
scalar scenarioPRJP1.node[0].app 	rcvdPk:count 	134
attr interpolationmode  none
attr source  rcvdPk
attr title  "packets received, count"
scalar scenarioPRJP1.node[0].app 	rcvdPk:sum(packetBytes) 	68608
attr interpolationmode  none
attr source  rcvdPk
attr title  "packets received, sum(packetBytes)"
statistic scenarioPRJP1.node[0].app 	endToEndDelay:histogram
field count 134
field mean 1.9114006747271
field stddev 3.9346097478363
field sum 256.12769041343
field sqrsum 2548.5561046857
field min 0.000964284208
field max 18.826593930898
attr interpolationmode  none
attr source  messageAge(rcvdPk)
attr title  "delay, histogram"
attr unit  s
bin	-INF	0
bin	-9.4102414109465	0
bin	-8.155270951309	0
bin	-6.9003004916714	0
bin	-5.6453300320339	0
bin	-4.3903595723964	0
bin	-3.1353891127588	0
bin	-1.8804186531213	0
bin	-0.62544819348377	84
bin	0.62952226615377	21
bin	1.8844927257913	9
bin	3.1394631854288	3
bin	4.3944336450664	2
bin	5.6494041047039	3
bin	6.9043745643414	0
bin	8.159345023979	2
bin	9.4143154836165	1
bin	10.669285943254	0
bin	11.924256402892	4
bin	13.179226862529	0
bin	14.434197322167	3
bin	15.689167781804	0
bin	16.944138241442	1
bin	18.199108701079	1
bin	19.454079160717	0
bin	20.709049620354	0
bin	21.964020079992	0
bin	23.218990539629	0
bin	24.473960999267	0
bin	25.728931458904	0
bin	26.983901918542	0
bin	28.23887237818	0
scalar scenarioPRJP1.node[0].udp 	droppedPkBadChecksum:count 	0
attr interpolationmode  none
attr title  "packets dropped (checksum error), count"
scalar scenarioPRJP1.node[0].udp 	droppedPkWrongPort:count 	0
attr interpolationmode  none
attr title  "packets dropped (wrong port), count"
scalar scenarioPRJP1.node[0].udp 	passedUpPk:count 	149
attr interpolationmode  none
attr title  "packets passed up, count"
scalar scenarioPRJP1.node[0].udp 	sentPk:count 	2606
attr interpolationmode  none
attr source  sentPk
attr title  "packets sent, count"
scalar scenarioPRJP1.node[0].udp 	sentPk:sum(packetBytes) 	1355120
attr interpolationmode  none
attr source  sentPk
attr title  "packets sent, sum(packetBytes)"
scalar scenarioPRJP1.node[0].udp 	rcvdPk:count 	149
attr interpolationmode  none
attr source  rcvdPk
attr title  "packets received, count"
scalar scenarioPRJP1.node[0].udp 	rcvdPk:sum(packetBytes) 	77480
attr interpolationmode  none
attr source  rcvdPk
attr title  "packets received, sum(packetBytes)"
scalar scenarioPRJP1.node[0].networkLayer.arp 	sentReply:count 	44
attr title  "ARP replies sent, count"
scalar scenarioPRJP1.node[0].networkLayer.arp 	sentReq:count 	217
attr title  "ARP request sent, count"
scalar scenarioPRJP1.node[0].networkLayer.arp 	failedARPResolution:count 	36
attr title  "ARP failed resolutions, count"
scalar scenarioPRJP1.node[0].networkLayer.arp 	completedARPResolution:count 	1037
attr title  "ARP completed resolutions, count"
scalar scenarioPRJP1.node[0].networkLayer.arp 	initiatedARPResolution:count 	115
attr title  "ARP initiated resolutions, count"
scalar scenarioPRJP1.node[0].mobility 	startTime 	0.1
scalar scenarioPRJP1.node[0].mobility 	totalTime 	949.9
scalar scenarioPRJP1.node[0].mobility 	stopTime 	950
scalar scenarioPRJP1.node[0].mobility 	minSpeed 	2.4756207483129e-013
scalar scenarioPRJP1.node[0].mobility 	maxSpeed 	19.935867188499
scalar scenarioPRJP1.node[0].mobility 	totalDistance 	10796.914853448
scalar scenarioPRJP1.node[0].mobility 	totalCO2Emission 	2888.666646947
scalar scenarioPRJP1.node[0].wlan.mgmt 	dropPkByQueue:count 	0
attr interpolationmode  none
attr source  dropPkByQueue
attr title  "packets dropped by queue, count"
scalar scenarioPRJP1.node[0].wlan.mgmt 	dropPkByQueue:sum(packetBytes) 	0
attr interpolationmode  none
attr source  dropPkByQueue
attr title  "packets dropped by queue, sum(packetBytes)"
scalar scenarioPRJP1.node[0].wlan.mgmt 	dataQueueLen:max 	23
attr interpolationmode  sample-hold
attr title  "data queue length, max"
scalar scenarioPRJP1.node[0].wlan.mgmt 	dataQueueLen:timeavg 	0.0002066953083293
attr interpolationmode  sample-hold
attr title  "data queue length, timeavg"
scalar scenarioPRJP1.node[0].wlan.mac 	"number of received packets" 	14924
scalar scenarioPRJP1.node[0].wlan.mac 	"number of collisions" 	67634
scalar scenarioPRJP1.node[0].wlan.mac 	"number of internal collisions" 	0
scalar scenarioPRJP1.node[0].wlan.mac 	"number of retry for AC 0" 	34618
scalar scenarioPRJP1.node[0].wlan.mac 	"number of retry for AC 1" 	0
scalar scenarioPRJP1.node[0].wlan.mac 	"number of retry for AC 2" 	0
scalar scenarioPRJP1.node[0].wlan.mac 	"number of retry for AC 3" 	0
scalar scenarioPRJP1.node[0].wlan.mac 	"sent and received bits" 	19357504
scalar scenarioPRJP1.node[0].wlan.mac 	"sent packet within AC 0" 	4981
scalar scenarioPRJP1.node[0].wlan.mac 	"sent packet within AC 1" 	0
scalar scenarioPRJP1.node[0].wlan.mac 	"sent packet within AC 2" 	0
scalar scenarioPRJP1.node[0].wlan.mac 	"sent packet within AC 3" 	0
scalar scenarioPRJP1.node[0].wlan.mac 	"sent in TXOP " 	0
scalar scenarioPRJP1.node[0].wlan.mac 	"sentWithoutRetry AC 0" 	4457
scalar scenarioPRJP1.node[0].wlan.mac 	"sentWithoutRetry AC 1" 	0
scalar scenarioPRJP1.node[0].wlan.mac 	"sentWithoutRetry AC 2" 	0
scalar scenarioPRJP1.node[0].wlan.mac 	"sentWithoutRetry AC 3" 	0
scalar scenarioPRJP1.node[0].wlan.mac 	"numGivenUp AC 0" 	5580
scalar scenarioPRJP1.node[0].wlan.mac 	"numGivenUp AC 1" 	0
scalar scenarioPRJP1.node[0].wlan.mac 	"numGivenUp AC 2" 	0
scalar scenarioPRJP1.node[0].wlan.mac 	"numGivenUp AC 3" 	0
scalar scenarioPRJP1.node[0].wlan.mac 	"numDropped AC 0" 	32
scalar scenarioPRJP1.node[0].wlan.mac 	"numDropped AC 1" 	0
scalar scenarioPRJP1.node[0].wlan.mac 	"numDropped AC 2" 	0
scalar scenarioPRJP1.node[0].wlan.mac 	"numDropped AC 3" 	0
scalar scenarioPRJP1.node[0].wlan.mac 	rcvdPkFromHL:count 	23873
attr interpolationmode  none
attr source  packetReceivedFromUpper
attr title  "packets received from higher layer, count"
scalar scenarioPRJP1.node[0].wlan.mac 	rcvdPkFromHL:sum(packetBytes) 	4530740
attr interpolationmode  none
attr source  packetReceivedFromUpper
attr title  "packets received from higher layer, sum(packetBytes)"
scalar scenarioPRJP1.node[0].wlan.mac 	passedUpPk:count 	50294
attr interpolationmode  none
attr source  packetSentToUpper
attr title  "packets passed to higher layer, count"
scalar scenarioPRJP1.node[0].wlan.mac 	passedUpPk:sum(packetBytes) 	5070808
attr interpolationmode  none
attr source  packetSentToUpper
attr title  "packets passed to higher layer, sum(packetBytes)"
scalar scenarioPRJP1.node[0].wlan.mac 	rcvdPkFromLL:count 	329336
attr interpolationmode  none
attr source  packetReceivedFromLower
attr title  "packets received from lower layer, count"
scalar scenarioPRJP1.node[0].wlan.mac 	rcvdPkFromLL:sum(packetBytes) 	77002060
attr interpolationmode  none
attr source  packetReceivedFromLower
attr title  "packets received from lower layer, sum(packetBytes)"
scalar scenarioPRJP1.node[0].wlan.mac 	sentDownPk:count 	73383
attr interpolationmode  none
attr source  packetSentToLower
attr title  "packets sent to lower layer, count"
scalar scenarioPRJP1.node[0].wlan.mac 	sentDownPk:sum(packetBytes) 	17867004
attr interpolationmode  none
attr source  packetSentToLower
attr title  "packets sent to lower layer, sum(packetBytes)"
statistic scenarioPRJP1.node[0].wlan.radio 	symbolErrorRate:histogram
field count 0
field mean nan
field stddev nan
field sum 0
field sqrsum 0
field min nan
field max nan
attr source  symbolErrorRate
attr title  "Symbol error rate, histogram"
bin	-INF	0
bin	-0.5	0
bin	-0.46666666666667	0
bin	-0.43333333333333	0
bin	-0.4	0
bin	-0.36666666666667	0
bin	-0.33333333333333	0
bin	-0.3	0
bin	-0.26666666666667	0
bin	-0.23333333333333	0
bin	-0.2	0
bin	-0.16666666666667	0
bin	-0.13333333333333	0
bin	-0.1	0
bin	-0.066666666666667	0
bin	-0.033333333333333	0
bin	-6.9388939039072e-018	0
bin	0.033333333333333	0
bin	0.066666666666667	0
bin	0.1	0
bin	0.13333333333333	0
bin	0.16666666666667	0
bin	0.2	0
bin	0.23333333333333	0
bin	0.26666666666667	0
bin	0.3	0
bin	0.33333333333333	0
bin	0.36666666666667	0
bin	0.4	0
bin	0.43333333333333	0
bin	0.46666666666667	0
bin	0.5	0
statistic scenarioPRJP1.node[0].wlan.radio 	bitErrorRate:histogram
field count 0
field mean nan
field stddev nan
field sum 0
field sqrsum 0
field min nan
field max nan
attr source  bitErrorRate
attr title  "Bit error rate, histogram"
bin	-INF	0
bin	-0.5	0
bin	-0.46666666666667	0
bin	-0.43333333333333	0
bin	-0.4	0
bin	-0.36666666666667	0
bin	-0.33333333333333	0
bin	-0.3	0
bin	-0.26666666666667	0
bin	-0.23333333333333	0
bin	-0.2	0
bin	-0.16666666666667	0
bin	-0.13333333333333	0
bin	-0.1	0
bin	-0.066666666666667	0
bin	-0.033333333333333	0
bin	-6.9388939039072e-018	0
bin	0.033333333333333	0
bin	0.066666666666667	0
bin	0.1	0
bin	0.13333333333333	0
bin	0.16666666666667	0
bin	0.2	0
bin	0.23333333333333	0
bin	0.26666666666667	0
bin	0.3	0
bin	0.33333333333333	0
bin	0.36666666666667	0
bin	0.4	0
bin	0.43333333333333	0
bin	0.46666666666667	0
bin	0.5	0
statistic scenarioPRJP1.node[0].wlan.radio 	packetErrorRate:histogram
field count 329336
field mean 0.19123230329152
field stddev 0.38431202690085
field sum 62979.681836816
field sqrsum 60685.124181908
field min 0
field max 1
attr source  packetErrorRate
attr title  "Packet error rate, histogram"
bin	-INF	0
bin	-0.5	0
bin	-0.43333333333333	0
bin	-0.36666666666667	0
bin	-0.3	0
bin	-0.23333333333333	0
bin	-0.16666666666667	0
bin	-0.1	0
bin	-0.033333333333333	256844
bin	0.033333333333333	3923
bin	0.1	1914
bin	0.16666666666667	1260
bin	0.23333333333333	984
bin	0.3	814
bin	0.36666666666667	746
bin	0.43333333333333	649
bin	0.5	611
bin	0.56666666666667	555
bin	0.63333333333333	604
bin	0.7	584
bin	0.76666666666667	686
bin	0.83333333333333	808
bin	0.9	1216
bin	0.96666666666667	57138
bin	1.0333333333333	0
bin	1.1	0
bin	1.1666666666667	0
bin	1.2333333333333	0
bin	1.3	0
bin	1.3666666666667	0
bin	1.4333333333333	0
bin	1.5	0
statistic scenarioPRJP1.node[0].wlan.radio 	minSNIR:histogram
field count 329336
field mean 3084.4533763265
field stddev 31184.247353141
field sum 1015821537.1459
field sqrsum 3.2339747346084e+014
field min 0.00016785127096542
field max 753239.71923443
attr source  minSNIR
attr title  "Min SNIR, histogram"
bin	-INF	0
bin	-8.4882704360821	0
bin	-7.2545219087975	0
bin	-6.020773381513	0
bin	-4.7870248542285	0
bin	-3.553276326944	0
bin	-2.3195277996594	0
bin	-1.0857792723749	1305
bin	0.1479692549096	24261
bin	1.3817177821941	26604
bin	2.6154663094786	21913
bin	3.8492148367632	16795
bin	5.0829633640477	12572
bin	6.3167118913322	9885
bin	7.5504604186167	8129
bin	8.7842089459012	6911
bin	10.017957473186	5963
bin	11.25170600047	5195
bin	12.485454527755	4763
bin	13.719203055039	4316
bin	14.952951582324	4050
bin	16.186700109608	3814
bin	17.420448636893	3545
bin	18.654197164177	3144
bin	19.887945691462	2964
bin	21.121694218746	2597
bin	22.355442746031	2420
bin	23.589191273316	2425
bin	24.8229398006	2155
bin	26.056688327885	2067
bin	27.290436855169	1974
bin	28.524185382454	149569
scalar scenarioPRJP1.node[0].wlan.radio 	transmissionState:count 	293532
attr interpolationmode  sample-hold
attr source  transmissionStateChanged
attr title  "Radio transmission state, count"
scalar scenarioPRJP1.node[0].wlan.radio 	receptionState:count 	819753
attr interpolationmode  sample-hold
attr source  receptionStateChanged
attr title  "Radio reception state, count"
scalar scenarioPRJP1.node[0].wlan.radio 	radioMode:count 	146768
attr interpolationmode  sample-hold
attr source  radioModeChanged
attr title  "Radio mode, count"
statistic scenarioPRJP1.node[0].wlan.radio 	radioChannel:histogram
field count 1
field mean 3
field stddev nan
field sum 3
field sqrsum 9
field min 3
field max 3
attr interpolationmode  sample-hold
attr source  radioChannelChanged
attr title  "Radio channel, histogram"
bin	-INF	0
bin	2	0
bin	3	1
bin	4	0
scalar scenarioPRJP1.node[0].lo0.lo 	droppedPkBitError:count 	0
attr interpolationmode  none
attr source  dropPkBitError
attr title  "packets dropped/bit error, count"
scalar scenarioPRJP1.node[0].lo0.lo 	droppedPkBitError:sum(packetBytes) 	0
attr interpolationmode  none
attr source  dropPkBitError
attr title  "packets dropped/bit error, sum(packetBytes)"
scalar scenarioPRJP1.node[0].lo0.lo 	rcvdPkFromHL:count 	149
attr interpolationmode  none
attr source  packetReceivedFromUpper
attr title  "packets received from higher layer, count"
scalar scenarioPRJP1.node[0].lo0.lo 	rcvdPkFromHL:sum(packetBytes) 	77480
attr interpolationmode  none
attr source  packetReceivedFromUpper
attr title  "packets received from higher layer, sum(packetBytes)"
scalar scenarioPRJP1.node[0].lo0.lo 	passedUpPk:count 	149
attr interpolationmode  none
attr source  packetSentToUpper
attr title  "packets passed to higher layer, count"
scalar scenarioPRJP1.node[0].lo0.lo 	passedUpPk:sum(packetBytes) 	77480
attr interpolationmode  none
attr source  packetSentToUpper
attr title  "packets passed to higher layer, sum(packetBytes)"
scalar scenarioPRJP1.node[21].app 	"Total sent" 	2596
scalar scenarioPRJP1.node[21].app 	"Total received" 	145
scalar scenarioPRJP1.node[21].app 	"Total deleted" 	2
scalar scenarioPRJP1.node[21].app 	outOfOrderPk:count 	9
attr interpolationmode  none
attr source  outOfOrderPk
attr title  "packets received out of order, count"
scalar scenarioPRJP1.node[21].app 	outOfOrderPk:sum(packetBytes) 	4608
attr interpolationmode  none
attr source  outOfOrderPk
attr title  "packets received out of order, sum(packetBytes)"
scalar scenarioPRJP1.node[21].app 	dropPk:count 	2
attr interpolationmode  none
attr source  dropPk
attr title  "packets dropped, count"
scalar scenarioPRJP1.node[21].app 	dropPk:sum(packetBytes) 	1024
attr interpolationmode  none
attr source  dropPk
attr title  "packets dropped, sum(packetBytes)"
scalar scenarioPRJP1.node[21].app 	sentPk:count 	2596
attr interpolationmode  none
attr source  sentPk
attr title  "packets sent, count"
scalar scenarioPRJP1.node[21].app 	sentPk:sum(packetBytes) 	1329152
attr interpolationmode  none
attr source  sentPk
attr title  "packets sent, sum(packetBytes)"
scalar scenarioPRJP1.node[21].app 	rcvdPk:count 	145
attr interpolationmode  none
attr source  rcvdPk
attr title  "packets received, count"
scalar scenarioPRJP1.node[21].app 	rcvdPk:sum(packetBytes) 	74240
attr interpolationmode  none
attr source  rcvdPk
attr title  "packets received, sum(packetBytes)"
statistic scenarioPRJP1.node[21].app 	endToEndDelay:histogram
field count 145
field mean 1.4927583999585
field stddev 3.6740741060562
field sum 216.44996799399
field sqrsum 2266.937665192
field min 0.001042022665
field max 19.537878061808
attr interpolationmode  none
attr source  messageAge(rcvdPk)
attr title  "delay, histogram"
attr unit  s
bin	-INF	0
bin	-9.7673759969065	0
bin	-8.4649202609636	0
bin	-7.1624645250208	0
bin	-5.8600087890779	0
bin	-4.557553053135	0
bin	-3.2550973171922	0
bin	-1.9526415812493	0
bin	-0.65018584530643	100
bin	0.65226989063643	20
bin	1.9547256265793	8
bin	3.2571813625222	4
bin	4.559637098465	2
bin	5.8620928344079	1
bin	7.1645485703508	1
bin	8.4670043062936	2
bin	9.7694600422365	0
bin	11.071915778179	0
bin	12.374371514122	1
bin	13.676827250065	2
bin	14.979282986008	1
bin	16.281738721951	1
bin	17.584194457894	1
bin	18.886650193837	1
bin	20.189105929779	0
bin	21.491561665722	0
bin	22.794017401665	0
bin	24.096473137608	0
bin	25.398928873551	0
bin	26.701384609494	0
bin	28.003840345437	0
bin	29.306296081379	0
scalar scenarioPRJP1.node[21].udp 	droppedPkBadChecksum:count 	0
attr interpolationmode  none
attr title  "packets dropped (checksum error), count"
scalar scenarioPRJP1.node[21].udp 	droppedPkWrongPort:count 	0
attr interpolationmode  none
attr title  "packets dropped (wrong port), count"
scalar scenarioPRJP1.node[21].udp 	passedUpPk:count 	156
attr interpolationmode  none
attr title  "packets passed up, count"
scalar scenarioPRJP1.node[21].udp 	sentPk:count 	2596
attr interpolationmode  none
attr source  sentPk
attr title  "packets sent, count"
scalar scenarioPRJP1.node[21].udp 	sentPk:sum(packetBytes) 	1349920
attr interpolationmode  none
attr source  sentPk
attr title  "packets sent, sum(packetBytes)"
scalar scenarioPRJP1.node[21].udp 	rcvdPk:count 	156
attr interpolationmode  none
attr source  rcvdPk
attr title  "packets received, count"
scalar scenarioPRJP1.node[21].udp 	rcvdPk:sum(packetBytes) 	81120
attr interpolationmode  none
attr source  rcvdPk
attr title  "packets received, sum(packetBytes)"
scalar scenarioPRJP1.node[21].networkLayer.arp 	sentReply:count 	56
attr title  "ARP replies sent, count"
scalar scenarioPRJP1.node[21].networkLayer.arp 	sentReq:count 	547
attr title  "ARP request sent, count"
scalar scenarioPRJP1.node[21].networkLayer.arp 	failedARPResolution:count 	147
attr title  "ARP failed resolutions, count"
scalar scenarioPRJP1.node[21].networkLayer.arp 	completedARPResolution:count 	1156
attr title  "ARP completed resolutions, count"
scalar scenarioPRJP1.node[21].networkLayer.arp 	initiatedARPResolution:count 	214
attr title  "ARP initiated resolutions, count"
scalar scenarioPRJP1.node[21].mobility 	startTime 	2.5
scalar scenarioPRJP1.node[21].mobility 	totalTime 	947.5
scalar scenarioPRJP1.node[21].mobility 	stopTime 	950
scalar scenarioPRJP1.node[21].mobility 	minSpeed 	2.4754569815395e-013
scalar scenarioPRJP1.node[21].mobility 	maxSpeed 	17.37167239741
scalar scenarioPRJP1.node[21].mobility 	totalDistance 	8436.3316017264
scalar scenarioPRJP1.node[21].mobility 	totalCO2Emission 	2392.0356372047
scalar scenarioPRJP1.node[21].wlan.mgmt 	dropPkByQueue:count 	0
attr interpolationmode  none
attr source  dropPkByQueue
attr title  "packets dropped by queue, count"
scalar scenarioPRJP1.node[21].wlan.mgmt 	dropPkByQueue:sum(packetBytes) 	0
attr interpolationmode  none
attr source  dropPkByQueue
attr title  "packets dropped by queue, sum(packetBytes)"
scalar scenarioPRJP1.node[21].wlan.mgmt 	dataQueueLen:max 	59
attr interpolationmode  sample-hold
attr title  "data queue length, max"
scalar scenarioPRJP1.node[21].wlan.mgmt 	dataQueueLen:timeavg 	0.13517452891982
attr interpolationmode  sample-hold
attr title  "data queue length, timeavg"
scalar scenarioPRJP1.node[21].wlan.mac 	"number of received packets" 	14277
scalar scenarioPRJP1.node[21].wlan.mac 	"number of collisions" 	64406
scalar scenarioPRJP1.node[21].wlan.mac 	"number of internal collisions" 	0
scalar scenarioPRJP1.node[21].wlan.mac 	"number of retry for AC 0" 	32709
scalar scenarioPRJP1.node[21].wlan.mac 	"number of retry for AC 1" 	0
scalar scenarioPRJP1.node[21].wlan.mac 	"number of retry for AC 2" 	0
scalar scenarioPRJP1.node[21].wlan.mac 	"number of retry for AC 3" 	0
scalar scenarioPRJP1.node[21].wlan.mac 	"sent and received bits" 	18173120
scalar scenarioPRJP1.node[21].wlan.mac 	"sent packet within AC 0" 	5103
scalar scenarioPRJP1.node[21].wlan.mac 	"sent packet within AC 1" 	0
scalar scenarioPRJP1.node[21].wlan.mac 	"sent packet within AC 2" 	0
scalar scenarioPRJP1.node[21].wlan.mac 	"sent packet within AC 3" 	0
scalar scenarioPRJP1.node[21].wlan.mac 	"sent in TXOP " 	0
scalar scenarioPRJP1.node[21].wlan.mac 	"sentWithoutRetry AC 0" 	4572
scalar scenarioPRJP1.node[21].wlan.mac 	"sentWithoutRetry AC 1" 	0
scalar scenarioPRJP1.node[21].wlan.mac 	"sentWithoutRetry AC 2" 	0
scalar scenarioPRJP1.node[21].wlan.mac 	"sentWithoutRetry AC 3" 	0
scalar scenarioPRJP1.node[21].wlan.mac 	"numGivenUp AC 0" 	5262
scalar scenarioPRJP1.node[21].wlan.mac 	"numGivenUp AC 1" 	0
scalar scenarioPRJP1.node[21].wlan.mac 	"numGivenUp AC 2" 	0
scalar scenarioPRJP1.node[21].wlan.mac 	"numGivenUp AC 3" 	0
scalar scenarioPRJP1.node[21].wlan.mac 	"numDropped AC 0" 	626
scalar scenarioPRJP1.node[21].wlan.mac 	"numDropped AC 1" 	0
scalar scenarioPRJP1.node[21].wlan.mac 	"numDropped AC 2" 	0
scalar scenarioPRJP1.node[21].wlan.mac 	"numDropped AC 3" 	0
scalar scenarioPRJP1.node[21].wlan.mac 	rcvdPkFromHL:count 	23934
attr interpolationmode  none
attr source  packetReceivedFromUpper
attr title  "packets received from higher layer, count"
scalar scenarioPRJP1.node[21].wlan.mac 	rcvdPkFromHL:sum(packetBytes) 	4511328
attr interpolationmode  none
attr source  packetReceivedFromUpper
attr title  "packets received from higher layer, sum(packetBytes)"
scalar scenarioPRJP1.node[21].wlan.mac 	passedUpPk:count 	42923
attr interpolationmode  none
attr source  packetSentToUpper
attr title  "packets passed to higher layer, count"
scalar scenarioPRJP1.node[21].wlan.mac 	passedUpPk:sum(packetBytes) 	4735108
attr interpolationmode  none
attr source  packetSentToUpper
attr title  "packets passed to higher layer, sum(packetBytes)"
scalar scenarioPRJP1.node[21].wlan.mac 	rcvdPkFromLL:count 	301604
attr interpolationmode  none
attr source  packetReceivedFromLower
attr title  "packets received from lower layer, count"
scalar scenarioPRJP1.node[21].wlan.mac 	rcvdPkFromLL:sum(packetBytes) 	72373206
attr interpolationmode  none
attr source  packetReceivedFromLower
attr title  "packets received from lower layer, sum(packetBytes)"
scalar scenarioPRJP1.node[21].wlan.mac 	sentDownPk:count 	70293
attr interpolationmode  none
attr source  packetSentToLower
attr title  "packets sent to lower layer, count"
scalar scenarioPRJP1.node[21].wlan.mac 	sentDownPk:sum(packetBytes) 	17602666
attr interpolationmode  none
attr source  packetSentToLower
attr title  "packets sent to lower layer, sum(packetBytes)"
statistic scenarioPRJP1.node[21].wlan.radio 	symbolErrorRate:histogram
field count 0
field mean nan
field stddev nan
field sum 0
field sqrsum 0
field min nan
field max nan
attr source  symbolErrorRate
attr title  "Symbol error rate, histogram"
bin	-INF	0
bin	-0.5	0
bin	-0.46666666666667	0
bin	-0.43333333333333	0
bin	-0.4	0
bin	-0.36666666666667	0
bin	-0.33333333333333	0
bin	-0.3	0
bin	-0.26666666666667	0
bin	-0.23333333333333	0
bin	-0.2	0
bin	-0.16666666666667	0
bin	-0.13333333333333	0
bin	-0.1	0
bin	-0.066666666666667	0
bin	-0.033333333333333	0
bin	-6.9388939039072e-018	0
bin	0.033333333333333	0
bin	0.066666666666667	0
bin	0.1	0
bin	0.13333333333333	0
bin	0.16666666666667	0
bin	0.2	0
bin	0.23333333333333	0
bin	0.26666666666667	0
bin	0.3	0
bin	0.33333333333333	0
bin	0.36666666666667	0
bin	0.4	0
bin	0.43333333333333	0
bin	0.46666666666667	0
bin	0.5	0
statistic scenarioPRJP1.node[21].wlan.radio 	bitErrorRate:histogram
field count 0
field mean nan
field stddev nan
field sum 0
field sqrsum 0
field min nan
field max nan
attr source  bitErrorRate
attr title  "Bit error rate, histogram"
bin	-INF	0
bin	-0.5	0
bin	-0.46666666666667	0
bin	-0.43333333333333	0
bin	-0.4	0
bin	-0.36666666666667	0
bin	-0.33333333333333	0
bin	-0.3	0
bin	-0.26666666666667	0
bin	-0.23333333333333	0
bin	-0.2	0
bin	-0.16666666666667	0
bin	-0.13333333333333	0
bin	-0.1	0
bin	-0.066666666666667	0
bin	-0.033333333333333	0
bin	-6.9388939039072e-018	0
bin	0.033333333333333	0
bin	0.066666666666667	0
bin	0.1	0
bin	0.13333333333333	0
bin	0.16666666666667	0
bin	0.2	0
bin	0.23333333333333	0
bin	0.26666666666667	0
bin	0.3	0
bin	0.33333333333333	0
bin	0.36666666666667	0
bin	0.4	0
bin	0.43333333333333	0
bin	0.46666666666667	0
bin	0.5	0
statistic scenarioPRJP1.node[21].wlan.radio 	packetErrorRate:histogram
field count 301604
field mean 0.19836505007476
field stddev 0.38941959398442
field sum 59827.692562748
field sqrsum 57605.100419912
field min 0
field max 1
attr source  packetErrorRate
attr title  "Packet error rate, histogram"
bin	-INF	0
bin	-0.5	0
bin	-0.43333333333333	0
bin	-0.36666666666667	0
bin	-0.3	0
bin	-0.23333333333333	0
bin	-0.16666666666667	0
bin	-0.1	0
bin	-0.033333333333333	232547
bin	0.033333333333333	3771
bin	0.1	1809
bin	0.16666666666667	1272
bin	0.23333333333333	1000
bin	0.3	812
bin	0.36666666666667	712
bin	0.43333333333333	618
bin	0.5	616
bin	0.56666666666667	553
bin	0.63333333333333	546
bin	0.7	590
bin	0.76666666666667	637
bin	0.83333333333333	753
bin	0.9	1126
bin	0.96666666666667	54242
bin	1.0333333333333	0
bin	1.1	0
bin	1.1666666666667	0
bin	1.2333333333333	0
bin	1.3	0
bin	1.3666666666667	0
bin	1.4333333333333	0
bin	1.5	0
statistic scenarioPRJP1.node[21].wlan.radio 	minSNIR:histogram
field count 301604
field mean 2899.1365924718
field stddev 37794.097893023
field sum 874391192.83588
field sqrsum 4.3334284548588e+014
field min 0.00034975768525718
field max 8373562.7702262
attr source  minSNIR
attr title  "Min SNIR, histogram"
bin	-INF	0
bin	-36.004762403585	0
bin	-31.065811915473	0
bin	-26.12686142736	0
bin	-21.187910939248	0
bin	-16.248960451136	0
bin	-11.310009963024	0
bin	-6.3710594749116	0
bin	-1.4321089867994	65630
bin	3.5068415013129	49298
bin	8.4457919894251	21851
bin	13.384742477537	12948
bin	18.32369296565	9599
bin	23.262643453762	7030
bin	28.201593941874	5592
bin	33.140544429986	4953
bin	38.079494918098	4195
bin	43.018445406211	3595
bin	47.957395894323	3343
bin	52.896346382435	2957
bin	57.835296870547	2756
bin	62.774247358659	2478
bin	67.713197846772	2301
bin	72.652148334884	2172
bin	77.591098822996	2036
bin	82.530049311108	1789
bin	87.468999799221	1725
bin	92.407950287333	1610
bin	97.346900775445	1466
bin	102.28585126356	1439
bin	107.22480175167	1343
bin	112.16375223978	89498
scalar scenarioPRJP1.node[21].wlan.radio 	transmissionState:count 	281172
attr interpolationmode  sample-hold
attr source  transmissionStateChanged
attr title  "Radio transmission state, count"
scalar scenarioPRJP1.node[21].wlan.radio 	receptionState:count 	756107
attr interpolationmode  sample-hold
attr source  receptionStateChanged
attr title  "Radio reception state, count"
scalar scenarioPRJP1.node[21].wlan.radio 	radioMode:count 	140588
attr interpolationmode  sample-hold
attr source  radioModeChanged
attr title  "Radio mode, count"
statistic scenarioPRJP1.node[21].wlan.radio 	radioChannel:histogram
field count 1
field mean 3
field stddev nan
field sum 3
field sqrsum 9
field min 3
field max 3
attr interpolationmode  sample-hold
attr source  radioChannelChanged
attr title  "Radio channel, histogram"
bin	-INF	0
bin	2	0
bin	3	1
bin	4	0
scalar scenarioPRJP1.node[21].lo0.lo 	droppedPkBitError:count 	0
attr interpolationmode  none
attr source  dropPkBitError
attr title  "packets dropped/bit error, count"
scalar scenarioPRJP1.node[21].lo0.lo 	droppedPkBitError:sum(packetBytes) 	0
attr interpolationmode  none
attr source  dropPkBitError
attr title  "packets dropped/bit error, sum(packetBytes)"
scalar scenarioPRJP1.node[21].lo0.lo 	rcvdPkFromHL:count 	156
attr interpolationmode  none
attr source  packetReceivedFromUpper
attr title  "packets received from higher layer, count"
scalar scenarioPRJP1.node[21].lo0.lo 	rcvdPkFromHL:sum(packetBytes) 	81120
attr interpolationmode  none
attr source  packetReceivedFromUpper
attr title  "packets received from higher layer, sum(packetBytes)"
scalar scenarioPRJP1.node[21].lo0.lo 	passedUpPk:count 	156
attr interpolationmode  none
attr source  packetSentToUpper
attr title  "packets passed to higher layer, count"
scalar scenarioPRJP1.node[21].lo0.lo 	passedUpPk:sum(packetBytes) 	81120
attr interpolationmode  none
attr source  packetSentToUpper
attr title  "packets passed to higher layer, sum(packetBytes)"
scalar scenarioPRJP1.node[42].app 	"Total sent" 	2611
scalar scenarioPRJP1.node[42].app 	"Total received" 	172
scalar scenarioPRJP1.node[42].app 	"Total deleted" 	7
scalar scenarioPRJP1.node[42].app 	outOfOrderPk:count 	19
attr interpolationmode  none
attr source  outOfOrderPk
attr title  "packets received out of order, count"
scalar scenarioPRJP1.node[42].app 	outOfOrderPk:sum(packetBytes) 	9728
attr interpolationmode  none
attr source  outOfOrderPk
attr title  "packets received out of order, sum(packetBytes)"
scalar scenarioPRJP1.node[42].app 	dropPk:count 	7
attr interpolationmode  none
attr source  dropPk
attr title  "packets dropped, count"
scalar scenarioPRJP1.node[42].app 	dropPk:sum(packetBytes) 	3584
attr interpolationmode  none
attr source  dropPk
attr title  "packets dropped, sum(packetBytes)"
scalar scenarioPRJP1.node[42].app 	sentPk:count 	2611
attr interpolationmode  none
attr source  sentPk
attr title  "packets sent, count"
scalar scenarioPRJP1.node[42].app 	sentPk:sum(packetBytes) 	1336832
attr interpolationmode  none
attr source  sentPk
attr title  "packets sent, sum(packetBytes)"
scalar scenarioPRJP1.node[42].app 	rcvdPk:count 	172
attr interpolationmode  none
attr source  rcvdPk
attr title  "packets received, count"
scalar scenarioPRJP1.node[42].app 	rcvdPk:sum(packetBytes) 	88064
attr interpolationmode  none
attr source  rcvdPk
attr title  "packets received, sum(packetBytes)"
statistic scenarioPRJP1.node[42].app 	endToEndDelay:histogram
field count 172
field mean 1.8246331575872
field stddev 3.9067622250947
field sum 313.836903105
field sqrsum 3182.5744947459
field min 0.000964631309
field max 17.776644384886
attr interpolationmode  none
attr source  messageAge(rcvdPk)
attr title  "delay, histogram"
attr unit  s
bin	-INF	0
bin	-8.8868752454795	0
bin	-7.7018299285744	0
bin	-6.5167846116692	0
bin	-5.3317392947641	0
bin	-4.146693977859	0
bin	-2.9616486609538	0
bin	-1.7766033440487	0
bin	-0.59155802714357	113
bin	0.59348728976157	18
bin	1.7785326066667	15
bin	2.9635779235718	6
bin	4.148623240477	2
bin	5.3336685573821	1
bin	6.5187138742872	3
bin	7.7037591911924	2
bin	8.8888045080975	2
bin	10.073849825003	2
bin	11.258895141908	0
bin	12.443940458813	0
bin	13.628985775718	1
bin	14.814031092623	1
bin	15.999076409528	5
bin	17.184121726433	1
bin	18.369167043339	0
bin	19.554212360244	0
bin	20.739257677149	0
bin	21.924302994054	0
bin	23.109348310959	0
bin	24.294393627864	0
bin	25.479438944769	0
bin	26.664484261675	0
scalar scenarioPRJP1.node[42].udp 	droppedPkBadChecksum:count 	0
attr interpolationmode  none
attr title  "packets dropped (checksum error), count"
scalar scenarioPRJP1.node[42].udp 	droppedPkWrongPort:count 	0
attr interpolationmode  none
attr title  "packets dropped (wrong port), count"
scalar scenarioPRJP1.node[42].udp 	passedUpPk:count 	198
attr interpolationmode  none
attr title  "packets passed up, count"
scalar scenarioPRJP1.node[42].udp 	sentPk:count 	2611
attr interpolationmode  none
attr source  sentPk
attr title  "packets sent, count"
scalar scenarioPRJP1.node[42].udp 	sentPk:sum(packetBytes) 	1357720
attr interpolationmode  none
attr source  sentPk
attr title  "packets sent, sum(packetBytes)"
scalar scenarioPRJP1.node[42].udp 	rcvdPk:count 	198
attr interpolationmode  none
attr source  rcvdPk
attr title  "packets received, count"
scalar scenarioPRJP1.node[42].udp 	rcvdPk:sum(packetBytes) 	102960
attr interpolationmode  none
attr source  rcvdPk
attr title  "packets received, sum(packetBytes)"
scalar scenarioPRJP1.node[42].networkLayer.arp 	sentReply:count 	66
attr title  "ARP replies sent, count"
scalar scenarioPRJP1.node[42].networkLayer.arp 	sentReq:count 	148
attr title  "ARP request sent, count"
scalar scenarioPRJP1.node[42].networkLayer.arp 	failedARPResolution:count 	24
attr title  "ARP failed resolutions, count"
scalar scenarioPRJP1.node[42].networkLayer.arp 	completedARPResolution:count 	1418
attr title  "ARP completed resolutions, count"
scalar scenarioPRJP1.node[42].networkLayer.arp 	initiatedARPResolution:count 	84
attr title  "ARP initiated resolutions, count"
scalar scenarioPRJP1.node[42].mobility 	startTime 	4.9
scalar scenarioPRJP1.node[42].mobility 	totalTime 	945.1
scalar scenarioPRJP1.node[42].mobility 	stopTime 	950
scalar scenarioPRJP1.node[42].mobility 	minSpeed 	0
scalar scenarioPRJP1.node[42].mobility 	maxSpeed 	15.175975651964
scalar scenarioPRJP1.node[42].mobility 	totalDistance 	8971.0392619418
scalar scenarioPRJP1.node[42].mobility 	totalCO2Emission 	2210.5273887035
scalar scenarioPRJP1.node[42].wlan.mgmt 	dropPkByQueue:count 	0
attr interpolationmode  none
attr source  dropPkByQueue
attr title  "packets dropped by queue, count"
scalar scenarioPRJP1.node[42].wlan.mgmt 	dropPkByQueue:sum(packetBytes) 	0
attr interpolationmode  none
attr source  dropPkByQueue
attr title  "packets dropped by queue, sum(packetBytes)"
scalar scenarioPRJP1.node[42].wlan.mgmt 	dataQueueLen:max 	13
attr interpolationmode  sample-hold
attr title  "data queue length, max"
scalar scenarioPRJP1.node[42].wlan.mgmt 	dataQueueLen:timeavg 	0.01744287002841
attr interpolationmode  sample-hold
attr title  "data queue length, timeavg"
scalar scenarioPRJP1.node[42].wlan.mac 	"number of received packets" 	14226
scalar scenarioPRJP1.node[42].wlan.mac 	"number of collisions" 	72355
scalar scenarioPRJP1.node[42].wlan.mac 	"number of internal collisions" 	0
scalar scenarioPRJP1.node[42].wlan.mac 	"number of retry for AC 0" 	30875
scalar scenarioPRJP1.node[42].wlan.mac 	"number of retry for AC 1" 	0
scalar scenarioPRJP1.node[42].wlan.mac 	"number of retry for AC 2" 	0
scalar scenarioPRJP1.node[42].wlan.mac 	"number of retry for AC 3" 	0
scalar scenarioPRJP1.node[42].wlan.mac 	"sent and received bits" 	20372768
scalar scenarioPRJP1.node[42].wlan.mac 	"sent packet within AC 0" 	5143
scalar scenarioPRJP1.node[42].wlan.mac 	"sent packet within AC 1" 	0
scalar scenarioPRJP1.node[42].wlan.mac 	"sent packet within AC 2" 	0
scalar scenarioPRJP1.node[42].wlan.mac 	"sent packet within AC 3" 	0
scalar scenarioPRJP1.node[42].wlan.mac 	"sent in TXOP " 	0
scalar scenarioPRJP1.node[42].wlan.mac 	"sentWithoutRetry AC 0" 	4555
scalar scenarioPRJP1.node[42].wlan.mac 	"sentWithoutRetry AC 1" 	0
scalar scenarioPRJP1.node[42].wlan.mac 	"sentWithoutRetry AC 2" 	0
scalar scenarioPRJP1.node[42].wlan.mac 	"sentWithoutRetry AC 3" 	0
scalar scenarioPRJP1.node[42].wlan.mac 	"numGivenUp AC 0" 	4943
scalar scenarioPRJP1.node[42].wlan.mac 	"numGivenUp AC 1" 	0
scalar scenarioPRJP1.node[42].wlan.mac 	"numGivenUp AC 2" 	0
scalar scenarioPRJP1.node[42].wlan.mac 	"numGivenUp AC 3" 	0
scalar scenarioPRJP1.node[42].wlan.mac 	"numDropped AC 0" 	121
scalar scenarioPRJP1.node[42].wlan.mac 	"numDropped AC 1" 	0
scalar scenarioPRJP1.node[42].wlan.mac 	"numDropped AC 2" 	0
scalar scenarioPRJP1.node[42].wlan.mac 	"numDropped AC 3" 	0
scalar scenarioPRJP1.node[42].wlan.mac 	rcvdPkFromHL:count 	22616
attr interpolationmode  none
attr source  packetReceivedFromUpper
attr title  "packets received from higher layer, count"
scalar scenarioPRJP1.node[42].wlan.mac 	rcvdPkFromHL:sum(packetBytes) 	4257492
attr interpolationmode  none
attr source  packetReceivedFromUpper
attr title  "packets received from higher layer, sum(packetBytes)"
scalar scenarioPRJP1.node[42].wlan.mac 	passedUpPk:count 	50281
attr interpolationmode  none
attr source  packetSentToUpper
attr title  "packets passed to higher layer, count"
scalar scenarioPRJP1.node[42].wlan.mac 	passedUpPk:sum(packetBytes) 	4924400
attr interpolationmode  none
attr source  packetSentToUpper
attr title  "packets passed to higher layer, sum(packetBytes)"
scalar scenarioPRJP1.node[42].wlan.mac 	rcvdPkFromLL:count 	365588
attr interpolationmode  none
attr source  packetReceivedFromLower
attr title  "packets received from lower layer, count"
scalar scenarioPRJP1.node[42].wlan.mac 	rcvdPkFromLL:sum(packetBytes) 	87303650
attr interpolationmode  none
attr source  packetReceivedFromLower
attr title  "packets received from lower layer, sum(packetBytes)"
scalar scenarioPRJP1.node[42].wlan.mac 	sentDownPk:count 	67596
attr interpolationmode  none
attr source  packetSentToLower
attr title  "packets sent to lower layer, count"
scalar scenarioPRJP1.node[42].wlan.mac 	sentDownPk:sum(packetBytes) 	15112872
attr interpolationmode  none
attr source  packetSentToLower
attr title  "packets sent to lower layer, sum(packetBytes)"
statistic scenarioPRJP1.node[42].wlan.radio 	symbolErrorRate:histogram
field count 0
field mean nan
field stddev nan
field sum 0
field sqrsum 0
field min nan
field max nan
attr source  symbolErrorRate
attr title  "Symbol error rate, histogram"
bin	-INF	0
bin	-0.5	0
bin	-0.46666666666667	0
bin	-0.43333333333333	0
bin	-0.4	0
bin	-0.36666666666667	0
bin	-0.33333333333333	0
bin	-0.3	0
bin	-0.26666666666667	0
bin	-0.23333333333333	0
bin	-0.2	0
bin	-0.16666666666667	0
bin	-0.13333333333333	0
bin	-0.1	0
bin	-0.066666666666667	0
bin	-0.033333333333333	0
bin	-6.9388939039072e-018	0
bin	0.033333333333333	0
bin	0.066666666666667	0
bin	0.1	0
bin	0.13333333333333	0
bin	0.16666666666667	0
bin	0.2	0
bin	0.23333333333333	0
bin	0.26666666666667	0
bin	0.3	0
bin	0.33333333333333	0
bin	0.36666666666667	0
bin	0.4	0
bin	0.43333333333333	0
bin	0.46666666666667	0
bin	0.5	0
statistic scenarioPRJP1.node[42].wlan.radio 	bitErrorRate:histogram
field count 0
field mean nan
field stddev nan
field sum 0
field sqrsum 0
field min nan
field max nan
attr source  bitErrorRate
attr title  "Bit error rate, histogram"
bin	-INF	0
bin	-0.5	0
bin	-0.46666666666667	0
bin	-0.43333333333333	0
bin	-0.4	0
bin	-0.36666666666667	0
bin	-0.33333333333333	0
bin	-0.3	0
bin	-0.26666666666667	0
bin	-0.23333333333333	0
bin	-0.2	0
bin	-0.16666666666667	0
bin	-0.13333333333333	0
bin	-0.1	0
bin	-0.066666666666667	0
bin	-0.033333333333333	0
bin	-6.9388939039072e-018	0
bin	0.033333333333333	0
bin	0.066666666666667	0
bin	0.1	0
bin	0.13333333333333	0
bin	0.16666666666667	0
bin	0.2	0
bin	0.23333333333333	0
bin	0.26666666666667	0
bin	0.3	0
bin	0.33333333333333	0
bin	0.36666666666667	0
bin	0.4	0
bin	0.43333333333333	0
bin	0.46666666666667	0
bin	0.5	0
statistic scenarioPRJP1.node[42].wlan.radio 	packetErrorRate:histogram
field count 365588
field mean 0.18452982112198
field stddev 0.37969729591589
field sum 67461.888244342
field sqrsum 65155.421313651
field min 0
field max 1
attr source  packetErrorRate
attr title  "Packet error rate, histogram"
bin	-INF	0
bin	-0.5	0
bin	-0.43333333333333	0
bin	-0.36666666666667	0
bin	-0.3	0
bin	-0.23333333333333	0
bin	-0.16666666666667	0
bin	-0.1	0
bin	-0.033333333333333	288646
bin	0.033333333333333	3878
bin	0.1	1893
bin	0.16666666666667	1238
bin	0.23333333333333	971
bin	0.3	858
bin	0.36666666666667	769
bin	0.43333333333333	634
bin	0.5	641
bin	0.56666666666667	556
bin	0.63333333333333	588
bin	0.7	591
bin	0.76666666666667	735
bin	0.83333333333333	787
bin	0.9	1236
bin	0.96666666666667	61567
bin	1.0333333333333	0
bin	1.1	0
bin	1.1666666666667	0
bin	1.2333333333333	0
bin	1.3	0
bin	1.3666666666667	0
bin	1.4333333333333	0
bin	1.5	0
statistic scenarioPRJP1.node[42].wlan.radio 	minSNIR:histogram
field count 365588
field mean 2644.5887673551
field stddev 21097.191959339
field sum 966829918.27981
field sqrsum 1.6527653688511e+014
field min 0.00020002342382075
field max 753239.71923443
attr source  minSNIR
attr title  "Min SNIR, histogram"
bin	-INF	0
bin	-18910.48276421	0
bin	-16388.930931985	0
bin	-13867.37909976	0
bin	-11345.827267535	0
bin	-8824.2754353104	0
bin	-6302.7236030856	0
bin	-3781.1717708607	0
bin	-1259.6199386359	318026
bin	1261.9318935889	21766
bin	3783.4837258138	6839
bin	6305.0355580386	3740
bin	8826.5873902634	2462
bin	11348.139222488	1779
bin	13869.691054713	1233
bin	16391.242886938	1065
bin	18912.794719163	847
bin	21434.346551388	970
bin	23955.898383612	554
bin	26477.450215837	322
bin	28999.002048062	315
bin	31520.553880287	443
bin	34042.105712512	267
bin	36563.657544737	367
bin	39085.209376961	199
bin	41606.761209186	174
bin	44128.313041411	116
bin	46649.864873636	133
bin	49171.416705861	111
bin	51692.968538086	98
bin	54214.52037031	136
bin	56736.072202535	3626
scalar scenarioPRJP1.node[42].wlan.radio 	transmissionState:count 	270384
attr interpolationmode  sample-hold
attr source  transmissionStateChanged
attr title  "Radio transmission state, count"
scalar scenarioPRJP1.node[42].wlan.radio 	receptionState:count 	880163
attr interpolationmode  sample-hold
attr source  receptionStateChanged
attr title  "Radio reception state, count"
scalar scenarioPRJP1.node[42].wlan.radio 	radioMode:count 	135194
attr interpolationmode  sample-hold
attr source  radioModeChanged
attr title  "Radio mode, count"
statistic scenarioPRJP1.node[42].wlan.radio 	radioChannel:histogram
field count 1
field mean 3
field stddev nan
field sum 3
field sqrsum 9
field min 3
field max 3
attr interpolationmode  sample-hold
attr source  radioChannelChanged
attr title  "Radio channel, histogram"
bin	-INF	0
bin	2	0
bin	3	1
bin	4	0
scalar scenarioPRJP1.node[42].lo0.lo 	droppedPkBitError:count 	0
attr interpolationmode  none
attr source  dropPkBitError
attr title  "packets dropped/bit error, count"
scalar scenarioPRJP1.node[42].lo0.lo 	droppedPkBitError:sum(packetBytes) 	0
attr interpolationmode  none
attr source  dropPkBitError
attr title  "packets dropped/bit error, sum(packetBytes)"
scalar scenarioPRJP1.node[42].lo0.lo 	rcvdPkFromHL:count 	198
attr interpolationmode  none
attr source  packetReceivedFromUpper
attr title  "packets received from higher layer, count"
scalar scenarioPRJP1.node[42].lo0.lo 	rcvdPkFromHL:sum(packetBytes) 	102960
attr interpolationmode  none
attr source  packetReceivedFromUpper
attr title  "packets received from higher layer, sum(packetBytes)"
scalar scenarioPRJP1.node[42].lo0.lo 	passedUpPk:count 	198
attr interpolationmode  none
attr source  packetSentToUpper
attr title  "packets passed to higher layer, count"
scalar scenarioPRJP1.node[42].lo0.lo 	passedUpPk:sum(packetBytes) 	102960
attr interpolationmode  none
attr source  packetSentToUpper
attr title  "packets passed to higher layer, sum(packetBytes)"
scalar scenarioPRJP1.node[62].app 	"Total sent" 	2622
scalar scenarioPRJP1.node[62].app 	"Total received" 	154
scalar scenarioPRJP1.node[62].app 	"Total deleted" 	7
scalar scenarioPRJP1.node[62].app 	outOfOrderPk:count 	10
attr interpolationmode  none
attr source  outOfOrderPk
attr title  "packets received out of order, count"
scalar scenarioPRJP1.node[62].app 	outOfOrderPk:sum(packetBytes) 	5120
attr interpolationmode  none
attr source  outOfOrderPk
attr title  "packets received out of order, sum(packetBytes)"
scalar scenarioPRJP1.node[62].app 	dropPk:count 	7
attr interpolationmode  none
attr source  dropPk
attr title  "packets dropped, count"
scalar scenarioPRJP1.node[62].app 	dropPk:sum(packetBytes) 	3584
attr interpolationmode  none
attr source  dropPk
attr title  "packets dropped, sum(packetBytes)"
scalar scenarioPRJP1.node[62].app 	sentPk:count 	2622
attr interpolationmode  none
attr source  sentPk
attr title  "packets sent, count"
scalar scenarioPRJP1.node[62].app 	sentPk:sum(packetBytes) 	1342464
attr interpolationmode  none
attr source  sentPk
attr title  "packets sent, sum(packetBytes)"
scalar scenarioPRJP1.node[62].app 	rcvdPk:count 	154
attr interpolationmode  none
attr source  rcvdPk
attr title  "packets received, count"
scalar scenarioPRJP1.node[62].app 	rcvdPk:sum(packetBytes) 	78848
attr interpolationmode  none
attr source  rcvdPk
attr title  "packets received, sum(packetBytes)"
statistic scenarioPRJP1.node[62].app 	endToEndDelay:histogram
field count 154
field mean 1.140186021589
field stddev 2.8112380535199
field sum 175.5886473247
field sqrsum 1409.3718084438
field min 0.000956066274
field max 19.859697557961
attr interpolationmode  none
attr source  messageAge(rcvdPk)
attr title  "delay, histogram"
attr unit  s
bin	-INF	0
bin	-9.9284146795695	0
bin	-8.6044985801237	0
bin	-7.2805824806779	0
bin	-5.9566663812321	0
bin	-4.6327502817863	0
bin	-3.3088341823405	0
bin	-1.9849180828947	0
bin	-0.6610019834489	108
bin	0.6629141159969	24
bin	1.9868302154427	3
bin	3.3107463148885	7
bin	4.6346624143343	5
bin	5.9585785137801	3
bin	7.2824946132259	1
bin	8.6064107126717	0
bin	9.9303268121175	0
bin	11.254242911563	0
bin	12.578159011009	0
bin	13.902075110455	0
bin	15.225991209901	1
bin	16.549907309346	1
bin	17.873823408792	0
bin	19.197739508238	1
bin	20.521655607684	0
bin	21.84557170713	0
bin	23.169487806575	0
bin	24.493403906021	0
bin	25.817320005467	0
bin	27.141236104913	0
bin	28.465152204359	0
bin	29.789068303804	0
scalar scenarioPRJP1.node[62].udp 	droppedPkBadChecksum:count 	0
attr interpolationmode  none
attr title  "packets dropped (checksum error), count"
scalar scenarioPRJP1.node[62].udp 	droppedPkWrongPort:count 	0
attr interpolationmode  none
attr title  "packets dropped (wrong port), count"
scalar scenarioPRJP1.node[62].udp 	passedUpPk:count 	171
attr interpolationmode  none
attr title  "packets passed up, count"
scalar scenarioPRJP1.node[62].udp 	sentPk:count 	2622
attr interpolationmode  none
attr source  sentPk
attr title  "packets sent, count"
scalar scenarioPRJP1.node[62].udp 	sentPk:sum(packetBytes) 	1363440
attr interpolationmode  none
attr source  sentPk
attr title  "packets sent, sum(packetBytes)"
scalar scenarioPRJP1.node[62].udp 	rcvdPk:count 	171
attr interpolationmode  none
attr source  rcvdPk
attr title  "packets received, count"
scalar scenarioPRJP1.node[62].udp 	rcvdPk:sum(packetBytes) 	88920
attr interpolationmode  none
attr source  rcvdPk
attr title  "packets received, sum(packetBytes)"
scalar scenarioPRJP1.node[62].networkLayer.arp 	sentReply:count 	51
attr title  "ARP replies sent, count"
scalar scenarioPRJP1.node[62].networkLayer.arp 	sentReq:count 	138
attr title  "ARP request sent, count"
scalar scenarioPRJP1.node[62].networkLayer.arp 	failedARPResolution:count 	16
attr title  "ARP failed resolutions, count"
scalar scenarioPRJP1.node[62].networkLayer.arp 	completedARPResolution:count 	1697
attr title  "ARP completed resolutions, count"
scalar scenarioPRJP1.node[62].networkLayer.arp 	initiatedARPResolution:count 	84
attr title  "ARP initiated resolutions, count"
scalar scenarioPRJP1.node[62].mobility 	startTime 	7.3
scalar scenarioPRJP1.node[62].mobility 	totalTime 	942.7
scalar scenarioPRJP1.node[62].mobility 	stopTime 	950
scalar scenarioPRJP1.node[62].mobility 	minSpeed 	2.4754195644036e-013
scalar scenarioPRJP1.node[62].mobility 	maxSpeed 	17.239259072144
scalar scenarioPRJP1.node[62].mobility 	totalDistance 	9307.923222299
scalar scenarioPRJP1.node[62].mobility 	totalCO2Emission 	2412.8619890548
scalar scenarioPRJP1.node[62].wlan.mgmt 	dropPkByQueue:count 	0
attr interpolationmode  none
attr source  dropPkByQueue
attr title  "packets dropped by queue, count"
scalar scenarioPRJP1.node[62].wlan.mgmt 	dropPkByQueue:sum(packetBytes) 	0
attr interpolationmode  none
attr source  dropPkByQueue
attr title  "packets dropped by queue, sum(packetBytes)"
scalar scenarioPRJP1.node[62].wlan.mgmt 	dataQueueLen:max 	39
attr interpolationmode  sample-hold
attr title  "data queue length, max"
scalar scenarioPRJP1.node[62].wlan.mgmt 	dataQueueLen:timeavg 	0.0075738424613652
attr interpolationmode  sample-hold
attr title  "data queue length, timeavg"
scalar scenarioPRJP1.node[62].wlan.mac 	"number of received packets" 	13653
scalar scenarioPRJP1.node[62].wlan.mac 	"number of collisions" 	62211
scalar scenarioPRJP1.node[62].wlan.mac 	"number of internal collisions" 	0
scalar scenarioPRJP1.node[62].wlan.mac 	"number of retry for AC 0" 	26342
scalar scenarioPRJP1.node[62].wlan.mac 	"number of retry for AC 1" 	0
scalar scenarioPRJP1.node[62].wlan.mac 	"number of retry for AC 2" 	0
scalar scenarioPRJP1.node[62].wlan.mac 	"number of retry for AC 3" 	0
scalar scenarioPRJP1.node[62].wlan.mac 	"sent and received bits" 	20021632
scalar scenarioPRJP1.node[62].wlan.mac 	"sent packet within AC 0" 	4698
scalar scenarioPRJP1.node[62].wlan.mac 	"sent packet within AC 1" 	0
scalar scenarioPRJP1.node[62].wlan.mac 	"sent packet within AC 2" 	0
scalar scenarioPRJP1.node[62].wlan.mac 	"sent packet within AC 3" 	0
scalar scenarioPRJP1.node[62].wlan.mac 	"sent in TXOP " 	0
scalar scenarioPRJP1.node[62].wlan.mac 	"sentWithoutRetry AC 0" 	4143
scalar scenarioPRJP1.node[62].wlan.mac 	"sentWithoutRetry AC 1" 	0
scalar scenarioPRJP1.node[62].wlan.mac 	"sentWithoutRetry AC 2" 	0
scalar scenarioPRJP1.node[62].wlan.mac 	"sentWithoutRetry AC 3" 	0
scalar scenarioPRJP1.node[62].wlan.mac 	"numGivenUp AC 0" 	4185
scalar scenarioPRJP1.node[62].wlan.mac 	"numGivenUp AC 1" 	0
scalar scenarioPRJP1.node[62].wlan.mac 	"numGivenUp AC 2" 	0
scalar scenarioPRJP1.node[62].wlan.mac 	"numGivenUp AC 3" 	0
scalar scenarioPRJP1.node[62].wlan.mac 	"numDropped AC 0" 	97
scalar scenarioPRJP1.node[62].wlan.mac 	"numDropped AC 1" 	0
scalar scenarioPRJP1.node[62].wlan.mac 	"numDropped AC 2" 	0
scalar scenarioPRJP1.node[62].wlan.mac 	"numDropped AC 3" 	0
scalar scenarioPRJP1.node[62].wlan.mac 	rcvdPkFromHL:count 	22945
attr interpolationmode  none
attr source  packetReceivedFromUpper
attr title  "packets received from higher layer, count"
scalar scenarioPRJP1.node[62].wlan.mac 	rcvdPkFromHL:sum(packetBytes) 	4052788
attr interpolationmode  none
attr source  packetReceivedFromUpper
attr title  "packets received from higher layer, sum(packetBytes)"
scalar scenarioPRJP1.node[62].wlan.mac 	passedUpPk:count 	47112
attr interpolationmode  none
attr source  packetSentToUpper
attr title  "packets passed to higher layer, count"
scalar scenarioPRJP1.node[62].wlan.mac 	passedUpPk:sum(packetBytes) 	4576772
attr interpolationmode  none
attr source  packetSentToUpper
attr title  "packets passed to higher layer, sum(packetBytes)"
scalar scenarioPRJP1.node[62].wlan.mac 	rcvdPkFromLL:count 	303070
attr interpolationmode  none
attr source  packetReceivedFromLower
attr title  "packets received from lower layer, count"
scalar scenarioPRJP1.node[62].wlan.mac 	rcvdPkFromLL:sum(packetBytes) 	73038928
attr interpolationmode  none
attr source  packetReceivedFromLower
attr title  "packets received from lower layer, sum(packetBytes)"
scalar scenarioPRJP1.node[62].wlan.mac 	sentDownPk:count 	62843
attr interpolationmode  none
attr source  packetSentToLower
attr title  "packets sent to lower layer, count"
scalar scenarioPRJP1.node[62].wlan.mac 	sentDownPk:sum(packetBytes) 	13975726
attr interpolationmode  none
attr source  packetSentToLower
attr title  "packets sent to lower layer, sum(packetBytes)"
statistic scenarioPRJP1.node[62].wlan.radio 	symbolErrorRate:histogram
field count 0
field mean nan
field stddev nan
field sum 0
field sqrsum 0
field min nan
field max nan
attr source  symbolErrorRate
attr title  "Symbol error rate, histogram"
bin	-INF	0
bin	-0.5	0
bin	-0.46666666666667	0
bin	-0.43333333333333	0
bin	-0.4	0
bin	-0.36666666666667	0
bin	-0.33333333333333	0
bin	-0.3	0
bin	-0.26666666666667	0
bin	-0.23333333333333	0
bin	-0.2	0
bin	-0.16666666666667	0
bin	-0.13333333333333	0
bin	-0.1	0
bin	-0.066666666666667	0
bin	-0.033333333333333	0
bin	-6.9388939039072e-018	0
bin	0.033333333333333	0
bin	0.066666666666667	0
bin	0.1	0
bin	0.13333333333333	0
bin	0.16666666666667	0
bin	0.2	0
bin	0.23333333333333	0
bin	0.26666666666667	0
bin	0.3	0
bin	0.33333333333333	0
bin	0.36666666666667	0
bin	0.4	0
bin	0.43333333333333	0
bin	0.46666666666667	0
bin	0.5	0
statistic scenarioPRJP1.node[62].wlan.radio 	bitErrorRate:histogram
field count 0
field mean nan
field stddev nan
field sum 0
field sqrsum 0
field min nan
field max nan
attr source  bitErrorRate
attr title  "Bit error rate, histogram"
bin	-INF	0
bin	-0.5	0
bin	-0.46666666666667	0
bin	-0.43333333333333	0
bin	-0.4	0
bin	-0.36666666666667	0
bin	-0.33333333333333	0
bin	-0.3	0
bin	-0.26666666666667	0
bin	-0.23333333333333	0
bin	-0.2	0
bin	-0.16666666666667	0
bin	-0.13333333333333	0
bin	-0.1	0
bin	-0.066666666666667	0
bin	-0.033333333333333	0
bin	-6.9388939039072e-018	0
bin	0.033333333333333	0
bin	0.066666666666667	0
bin	0.1	0
bin	0.13333333333333	0
bin	0.16666666666667	0
bin	0.2	0
bin	0.23333333333333	0
bin	0.26666666666667	0
bin	0.3	0
bin	0.33333333333333	0
bin	0.36666666666667	0
bin	0.4	0
bin	0.43333333333333	0
bin	0.46666666666667	0
bin	0.5	0
statistic scenarioPRJP1.node[62].wlan.radio 	packetErrorRate:histogram
field count 303070
field mean 0.19224424748381
field stddev 0.3858848504106
field sum 58263.464084919
field sqrsum 56329.947086184
field min 0
field max 1
attr source  packetErrorRate
attr title  "Packet error rate, histogram"
bin	-INF	0
bin	-0.5	0
bin	-0.43333333333333	0
bin	-0.36666666666667	0
bin	-0.3	0
bin	-0.23333333333333	0
bin	-0.16666666666667	0
bin	-0.1	0
bin	-0.033333333333333	236869
bin	0.033333333333333	3210
bin	0.1	1638
bin	0.16666666666667	1068
bin	0.23333333333333	768
bin	0.3	722
bin	0.36666666666667	601
bin	0.43333333333333	525
bin	0.5	528
bin	0.56666666666667	501
bin	0.63333333333333	512
bin	0.7	536
bin	0.76666666666667	564
bin	0.83333333333333	687
bin	0.9	1041
bin	0.96666666666667	53300
bin	1.0333333333333	0
bin	1.1	0
bin	1.1666666666667	0
bin	1.2333333333333	0
bin	1.3	0
bin	1.3666666666667	0
bin	1.4333333333333	0
bin	1.5	0
statistic scenarioPRJP1.node[62].wlan.radio 	minSNIR:histogram
field count 303070
field mean 3994.4760785801
field stddev 32749.184727567
field sum 1210605865.1353
field sqrsum 3.2987999669384e+014
field min 0.0001777853261095
field max 753239.71923443
attr source  minSNIR
attr title  "Min SNIR, histogram"
bin	-INF	0
bin	-5890.3048535664	0
bin	-5104.7808659557	0
bin	-4319.2568783451	0
bin	-3533.7328907344	0
bin	-2748.2089031238	0
bin	-1962.6849155131	0
bin	-1177.1609279025	0
bin	-391.63694029185	240978
bin	393.8870473188	22907
bin	1179.4110349294	7481
bin	1964.9350225401	4082
bin	2750.4590101507	2559
bin	3535.9829977614	1929
bin	4321.506985372	1664
bin	5107.0309729827	1367
bin	5892.5549605933	1188
bin	6678.078948204	1086
bin	7463.6029358146	927
bin	8249.1269234253	810
bin	9034.6509110359	871
bin	9820.1748986466	882
bin	10605.698886257	684
bin	11391.222873868	813
bin	12176.746861479	642
bin	12962.270849089	500
bin	13747.7948367	549
bin	14533.31882431	392
bin	15318.842811921	351
bin	16104.366799532	386
bin	16889.890787142	310
bin	17675.414774753	9712
scalar scenarioPRJP1.node[62].wlan.radio 	transmissionState:count 	251372
attr interpolationmode  sample-hold
attr source  transmissionStateChanged
attr title  "Radio transmission state, count"
scalar scenarioPRJP1.node[62].wlan.radio 	receptionState:count 	748306
attr interpolationmode  sample-hold
attr source  receptionStateChanged
attr title  "Radio reception state, count"
scalar scenarioPRJP1.node[62].wlan.radio 	radioMode:count 	125688
attr interpolationmode  sample-hold
attr source  radioModeChanged
attr title  "Radio mode, count"
statistic scenarioPRJP1.node[62].wlan.radio 	radioChannel:histogram
field count 1
field mean 3
field stddev nan
field sum 3
field sqrsum 9
field min 3
field max 3
attr interpolationmode  sample-hold
attr source  radioChannelChanged
attr title  "Radio channel, histogram"
bin	-INF	0
bin	2	0
bin	3	1
bin	4	0
scalar scenarioPRJP1.node[62].lo0.lo 	droppedPkBitError:count 	0
attr interpolationmode  none
attr source  dropPkBitError
attr title  "packets dropped/bit error, count"
scalar scenarioPRJP1.node[62].lo0.lo 	droppedPkBitError:sum(packetBytes) 	0
attr interpolationmode  none
attr source  dropPkBitError
attr title  "packets dropped/bit error, sum(packetBytes)"
scalar scenarioPRJP1.node[62].lo0.lo 	rcvdPkFromHL:count 	171
attr interpolationmode  none
attr source  packetReceivedFromUpper
attr title  "packets received from higher layer, count"
scalar scenarioPRJP1.node[62].lo0.lo 	rcvdPkFromHL:sum(packetBytes) 	88920
attr interpolationmode  none
attr source  packetReceivedFromUpper
attr title  "packets received from higher layer, sum(packetBytes)"
scalar scenarioPRJP1.node[62].lo0.lo 	passedUpPk:count 	171
attr interpolationmode  none
attr source  packetSentToUpper
attr title  "packets passed to higher layer, count"
scalar scenarioPRJP1.node[62].lo0.lo 	passedUpPk:sum(packetBytes) 	88920
attr interpolationmode  none
attr source  packetSentToUpper
attr title  "packets passed to higher layer, sum(packetBytes)"
scalar scenarioPRJP1.node[1].app 	"Total sent" 	2612
scalar scenarioPRJP1.node[1].app 	"Total received" 	175
scalar scenarioPRJP1.node[1].app 	"Total deleted" 	4
scalar scenarioPRJP1.node[1].app 	outOfOrderPk:count 	10
attr interpolationmode  none
attr source  outOfOrderPk
attr title  "packets received out of order, count"
scalar scenarioPRJP1.node[1].app 	outOfOrderPk:sum(packetBytes) 	5120
attr interpolationmode  none
attr source  outOfOrderPk
attr title  "packets received out of order, sum(packetBytes)"
scalar scenarioPRJP1.node[1].app 	dropPk:count 	4
attr interpolationmode  none
attr source  dropPk
attr title  "packets dropped, count"
scalar scenarioPRJP1.node[1].app 	dropPk:sum(packetBytes) 	2048
attr interpolationmode  none
attr source  dropPk
attr title  "packets dropped, sum(packetBytes)"
scalar scenarioPRJP1.node[1].app 	sentPk:count 	2612
attr interpolationmode  none
attr source  sentPk
attr title  "packets sent, count"
scalar scenarioPRJP1.node[1].app 	sentPk:sum(packetBytes) 	1337344
attr interpolationmode  none
attr source  sentPk
attr title  "packets sent, sum(packetBytes)"
scalar scenarioPRJP1.node[1].app 	rcvdPk:count 	175
attr interpolationmode  none
attr source  rcvdPk
attr title  "packets received, count"
scalar scenarioPRJP1.node[1].app 	rcvdPk:sum(packetBytes) 	89600
attr interpolationmode  none
attr source  rcvdPk
attr title  "packets received, sum(packetBytes)"
statistic scenarioPRJP1.node[1].app 	endToEndDelay:histogram
field count 175
field mean 1.9265190715313
field stddev 4.0703156377948
field sum 337.14083751798
field sqrsum 3532.2479273527
field min 0.00095629988
field max 18.823796646739
attr interpolationmode  none
attr source  messageAge(rcvdPk)
attr title  "delay, histogram"
attr unit  s
bin	-INF	0
bin	-9.4104638735495	0
bin	-8.1556078504256	0
bin	-6.9007518273016	0
bin	-5.6458958041777	0
bin	-4.3910397810538	0
bin	-3.1361837579298	0
bin	-1.8813277348059	0
bin	-0.62647171168197	121
bin	0.62838431144197	19
bin	1.8832403345659	5
bin	3.1380963576898	4
bin	4.3929523808138	2
bin	5.6478084039377	3
bin	6.9026644270616	7
bin	8.1575204501856	0
bin	9.4123764733095	3
bin	10.667232496433	0
bin	11.922088519557	1
bin	13.176944542681	4
bin	14.431800565805	3
bin	15.686656588929	2
bin	16.941512612053	0
bin	18.196368635177	1
bin	19.451224658301	0
bin	20.706080681425	0
bin	21.960936704549	0
bin	23.215792727673	0
bin	24.470648750797	0
bin	25.725504773921	0
bin	26.980360797045	0
bin	28.235216820168	0
scalar scenarioPRJP1.node[1].udp 	droppedPkBadChecksum:count 	0
attr interpolationmode  none
attr title  "packets dropped (checksum error), count"
scalar scenarioPRJP1.node[1].udp 	droppedPkWrongPort:count 	0
attr interpolationmode  none
attr title  "packets dropped (wrong port), count"
scalar scenarioPRJP1.node[1].udp 	passedUpPk:count 	189
attr interpolationmode  none
attr title  "packets passed up, count"
scalar scenarioPRJP1.node[1].udp 	sentPk:count 	2612
attr interpolationmode  none
attr source  sentPk
attr title  "packets sent, count"
scalar scenarioPRJP1.node[1].udp 	sentPk:sum(packetBytes) 	1358240
attr interpolationmode  none
attr source  sentPk
attr title  "packets sent, sum(packetBytes)"
scalar scenarioPRJP1.node[1].udp 	rcvdPk:count 	189
attr interpolationmode  none
attr source  rcvdPk
attr title  "packets received, count"
scalar scenarioPRJP1.node[1].udp 	rcvdPk:sum(packetBytes) 	98280
attr interpolationmode  none
attr source  rcvdPk
attr title  "packets received, sum(packetBytes)"
scalar scenarioPRJP1.node[1].networkLayer.arp 	sentReply:count 	46
attr title  "ARP replies sent, count"
scalar scenarioPRJP1.node[1].networkLayer.arp 	sentReq:count 	523
attr title  "ARP request sent, count"
scalar scenarioPRJP1.node[1].networkLayer.arp 	failedARPResolution:count 	135
attr title  "ARP failed resolutions, count"
scalar scenarioPRJP1.node[1].networkLayer.arp 	completedARPResolution:count 	1212
attr title  "ARP completed resolutions, count"
scalar scenarioPRJP1.node[1].networkLayer.arp 	initiatedARPResolution:count 	221
attr title  "ARP initiated resolutions, count"
scalar scenarioPRJP1.node[1].mobility 	startTime 	0.1
scalar scenarioPRJP1.node[1].mobility 	totalTime 	949.9
scalar scenarioPRJP1.node[1].mobility 	stopTime 	950
scalar scenarioPRJP1.node[1].mobility 	minSpeed 	2.4759289998811e-013
scalar scenarioPRJP1.node[1].mobility 	maxSpeed 	20.6879081009
scalar scenarioPRJP1.node[1].mobility 	totalDistance 	10835.732342206
scalar scenarioPRJP1.node[1].mobility 	totalCO2Emission 	2929.1771718258
scalar scenarioPRJP1.node[1].wlan.mgmt 	dropPkByQueue:count 	0
attr interpolationmode  none
attr source  dropPkByQueue
attr title  "packets dropped by queue, count"
scalar scenarioPRJP1.node[1].wlan.mgmt 	dropPkByQueue:sum(packetBytes) 	0
attr interpolationmode  none
attr source  dropPkByQueue
attr title  "packets dropped by queue, sum(packetBytes)"
scalar scenarioPRJP1.node[1].wlan.mgmt 	dataQueueLen:max 	39
attr interpolationmode  sample-hold
attr title  "data queue length, max"
scalar scenarioPRJP1.node[1].wlan.mgmt 	dataQueueLen:timeavg 	0.090573339472758
attr interpolationmode  sample-hold
attr title  "data queue length, timeavg"
scalar scenarioPRJP1.node[1].wlan.mac 	"number of received packets" 	12018
scalar scenarioPRJP1.node[1].wlan.mac 	"number of collisions" 	60796
scalar scenarioPRJP1.node[1].wlan.mac 	"number of internal collisions" 	0
scalar scenarioPRJP1.node[1].wlan.mac 	"number of retry for AC 0" 	30257
scalar scenarioPRJP1.node[1].wlan.mac 	"number of retry for AC 1" 	0
scalar scenarioPRJP1.node[1].wlan.mac 	"number of retry for AC 2" 	0
scalar scenarioPRJP1.node[1].wlan.mac 	"number of retry for AC 3" 	0
scalar scenarioPRJP1.node[1].wlan.mac 	"sent and received bits" 	20542080
scalar scenarioPRJP1.node[1].wlan.mac 	"sent packet within AC 0" 	5576
scalar scenarioPRJP1.node[1].wlan.mac 	"sent packet within AC 1" 	0
scalar scenarioPRJP1.node[1].wlan.mac 	"sent packet within AC 2" 	0
scalar scenarioPRJP1.node[1].wlan.mac 	"sent packet within AC 3" 	0
scalar scenarioPRJP1.node[1].wlan.mac 	"sent in TXOP " 	0
scalar scenarioPRJP1.node[1].wlan.mac 	"sentWithoutRetry AC 0" 	5038
scalar scenarioPRJP1.node[1].wlan.mac 	"sentWithoutRetry AC 1" 	0
scalar scenarioPRJP1.node[1].wlan.mac 	"sentWithoutRetry AC 2" 	0
scalar scenarioPRJP1.node[1].wlan.mac 	"sentWithoutRetry AC 3" 	0
scalar scenarioPRJP1.node[1].wlan.mac 	"numGivenUp AC 0" 	4839
scalar scenarioPRJP1.node[1].wlan.mac 	"numGivenUp AC 1" 	0
scalar scenarioPRJP1.node[1].wlan.mac 	"numGivenUp AC 2" 	0
scalar scenarioPRJP1.node[1].wlan.mac 	"numGivenUp AC 3" 	0
scalar scenarioPRJP1.node[1].wlan.mac 	"numDropped AC 0" 	288
scalar scenarioPRJP1.node[1].wlan.mac 	"numDropped AC 1" 	0
scalar scenarioPRJP1.node[1].wlan.mac 	"numDropped AC 2" 	0
scalar scenarioPRJP1.node[1].wlan.mac 	"numDropped AC 3" 	0
scalar scenarioPRJP1.node[1].wlan.mac 	rcvdPkFromHL:count 	24980
attr interpolationmode  none
attr source  packetReceivedFromUpper
attr title  "packets received from higher layer, count"
scalar scenarioPRJP1.node[1].wlan.mac 	rcvdPkFromHL:sum(packetBytes) 	4514132
attr interpolationmode  none
attr source  packetReceivedFromUpper
attr title  "packets received from higher layer, sum(packetBytes)"
scalar scenarioPRJP1.node[1].wlan.mac 	passedUpPk:count 	57626
attr interpolationmode  none
attr source  packetSentToUpper
attr title  "packets passed to higher layer, count"
scalar scenarioPRJP1.node[1].wlan.mac 	passedUpPk:sum(packetBytes) 	5643784
attr interpolationmode  none
attr source  packetSentToUpper
attr title  "packets passed to higher layer, sum(packetBytes)"
scalar scenarioPRJP1.node[1].wlan.mac 	rcvdPkFromLL:count 	328690
attr interpolationmode  none
attr source  packetReceivedFromLower
attr title  "packets received from lower layer, count"
scalar scenarioPRJP1.node[1].wlan.mac 	rcvdPkFromLL:sum(packetBytes) 	76888930
attr interpolationmode  none
attr source  packetReceivedFromLower
attr title  "packets received from lower layer, sum(packetBytes)"
scalar scenarioPRJP1.node[1].wlan.mac 	sentDownPk:count 	66967
attr interpolationmode  none
attr source  packetSentToLower
attr title  "packets sent to lower layer, count"
scalar scenarioPRJP1.node[1].wlan.mac 	sentDownPk:sum(packetBytes) 	16445896
attr interpolationmode  none
attr source  packetSentToLower
attr title  "packets sent to lower layer, sum(packetBytes)"
statistic scenarioPRJP1.node[1].wlan.radio 	symbolErrorRate:histogram
field count 0
field mean nan
field stddev nan
field sum 0
field sqrsum 0
field min nan
field max nan
attr source  symbolErrorRate
attr title  "Symbol error rate, histogram"
bin	-INF	0
bin	-0.5	0
bin	-0.46666666666667	0
bin	-0.43333333333333	0
bin	-0.4	0
bin	-0.36666666666667	0
bin	-0.33333333333333	0
bin	-0.3	0
bin	-0.26666666666667	0
bin	-0.23333333333333	0
bin	-0.2	0
bin	-0.16666666666667	0
bin	-0.13333333333333	0
bin	-0.1	0
bin	-0.066666666666667	0
bin	-0.033333333333333	0
bin	-6.9388939039072e-018	0
bin	0.033333333333333	0
bin	0.066666666666667	0
bin	0.1	0
bin	0.13333333333333	0
bin	0.16666666666667	0
bin	0.2	0
bin	0.23333333333333	0
bin	0.26666666666667	0
bin	0.3	0
bin	0.33333333333333	0
bin	0.36666666666667	0
bin	0.4	0
bin	0.43333333333333	0
bin	0.46666666666667	0
bin	0.5	0
statistic scenarioPRJP1.node[1].wlan.radio 	bitErrorRate:histogram
field count 0
field mean nan
field stddev nan
field sum 0
field sqrsum 0
field min nan
field max nan
attr source  bitErrorRate
attr title  "Bit error rate, histogram"
bin	-INF	0
bin	-0.5	0
bin	-0.46666666666667	0
bin	-0.43333333333333	0
bin	-0.4	0
bin	-0.36666666666667	0
bin	-0.33333333333333	0
bin	-0.3	0
bin	-0.26666666666667	0
bin	-0.23333333333333	0
bin	-0.2	0
bin	-0.16666666666667	0
bin	-0.13333333333333	0
bin	-0.1	0
bin	-0.066666666666667	0
bin	-0.033333333333333	0
bin	-6.9388939039072e-018	0
bin	0.033333333333333	0
bin	0.066666666666667	0
bin	0.1	0
bin	0.13333333333333	0
bin	0.16666666666667	0
bin	0.2	0
bin	0.23333333333333	0
bin	0.26666666666667	0
bin	0.3	0
bin	0.33333333333333	0
bin	0.36666666666667	0
bin	0.4	0
bin	0.43333333333333	0
bin	0.46666666666667	0
bin	0.5	0
statistic scenarioPRJP1.node[1].wlan.radio 	packetErrorRate:histogram
field count 328690
field mean 0.17203323604068
field stddev 0.36959152077461
field sum 56545.604354211
field sqrsum 54625.947899621
field min 0
field max 1
attr source  packetErrorRate
attr title  "Packet error rate, histogram"
bin	-INF	0
bin	-0.5	0
bin	-0.43333333333333	0
bin	-0.36666666666667	0
bin	-0.3	0
bin	-0.23333333333333	0
bin	-0.16666666666667	0
bin	-0.1	0
bin	-0.033333333333333	264194
bin	0.033333333333333	3300
bin	0.1	1590
bin	0.16666666666667	1008
bin	0.23333333333333	801
bin	0.3	723
bin	0.36666666666667	625
bin	0.43333333333333	535
bin	0.5	553
bin	0.56666666666667	497
bin	0.63333333333333	468
bin	0.7	502
bin	0.76666666666667	562
bin	0.83333333333333	635
bin	0.9	1011
bin	0.96666666666667	51686
bin	1.0333333333333	0
bin	1.1	0
bin	1.1666666666667	0
bin	1.2333333333333	0
bin	1.3	0
bin	1.3666666666667	0
bin	1.4333333333333	0
bin	1.5	0
statistic scenarioPRJP1.node[1].wlan.radio 	minSNIR:histogram
field count 328690
field mean 2930.4191216694
field stddev 33356.146722792
field sum 963199461.10151
field sqrsum 3.6853264986307e+014
field min 0.000161504842515
field max 3550515.4840192
attr source  minSNIR
attr title  "Min SNIR, histogram"
bin	-INF	0
bin	-36089.714704623	0
bin	-31277.705972374	0
bin	-26465.697240124	0
bin	-21653.688507875	0
bin	-16841.679775626	0
bin	-12029.671043376	0
bin	-7217.6623111269	0
bin	-2405.6535788776	301334
bin	2406.3551533718	13007
bin	7218.3638856212	4854
bin	12030.372617871	2297
bin	16842.38135012	1302
bin	21654.390082369	687
bin	26466.398814619	451
bin	31278.407546868	374
bin	36090.416279117	395
bin	40902.425011367	675
bin	45714.433743616	242
bin	50526.442475865	158
bin	55338.451208115	181
bin	60150.459940364	139
bin	64962.468672614	141
bin	69774.477404863	106
bin	74586.486137112	88
bin	79398.494869362	107
bin	84210.503601611	99
bin	89022.51233386	86
bin	93834.52106611	81
bin	98646.529798359	69
bin	103458.53853061	68
bin	108270.54726286	1749
scalar scenarioPRJP1.node[1].wlan.radio 	transmissionState:count 	267868
attr interpolationmode  sample-hold
attr source  transmissionStateChanged
attr title  "Radio transmission state, count"
scalar scenarioPRJP1.node[1].wlan.radio 	receptionState:count 	805868
attr interpolationmode  sample-hold
attr source  receptionStateChanged
attr title  "Radio reception state, count"
scalar scenarioPRJP1.node[1].wlan.radio 	radioMode:count 	133936
attr interpolationmode  sample-hold
attr source  radioModeChanged
attr title  "Radio mode, count"
statistic scenarioPRJP1.node[1].wlan.radio 	radioChannel:histogram
field count 1
field mean 3
field stddev nan
field sum 3
field sqrsum 9
field min 3
field max 3
attr interpolationmode  sample-hold
attr source  radioChannelChanged
attr title  "Radio channel, histogram"
bin	-INF	0
bin	2	0
bin	3	1
bin	4	0
scalar scenarioPRJP1.node[1].lo0.lo 	droppedPkBitError:count 	0
attr interpolationmode  none
attr source  dropPkBitError
attr title  "packets dropped/bit error, count"
scalar scenarioPRJP1.node[1].lo0.lo 	droppedPkBitError:sum(packetBytes) 	0
attr interpolationmode  none
attr source  dropPkBitError
attr title  "packets dropped/bit error, sum(packetBytes)"
scalar scenarioPRJP1.node[1].lo0.lo 	rcvdPkFromHL:count 	189
attr interpolationmode  none
attr source  packetReceivedFromUpper
attr title  "packets received from higher layer, count"
scalar scenarioPRJP1.node[1].lo0.lo 	rcvdPkFromHL:sum(packetBytes) 	98280
attr interpolationmode  none
attr source  packetReceivedFromUpper
attr title  "packets received from higher layer, sum(packetBytes)"
scalar scenarioPRJP1.node[1].lo0.lo 	passedUpPk:count 	189
attr interpolationmode  none
attr source  packetSentToUpper
attr title  "packets passed to higher layer, count"
scalar scenarioPRJP1.node[1].lo0.lo 	passedUpPk:sum(packetBytes) 	98280
attr interpolationmode  none
attr source  packetSentToUpper
attr title  "packets passed to higher layer, sum(packetBytes)"
scalar scenarioPRJP1.node[22].app 	"Total sent" 	2616
scalar scenarioPRJP1.node[22].app 	"Total received" 	207
scalar scenarioPRJP1.node[22].app 	"Total deleted" 	9
scalar scenarioPRJP1.node[22].app 	outOfOrderPk:count 	29
attr interpolationmode  none
attr source  outOfOrderPk
attr title  "packets received out of order, count"
scalar scenarioPRJP1.node[22].app 	outOfOrderPk:sum(packetBytes) 	14848
attr interpolationmode  none
attr source  outOfOrderPk
attr title  "packets received out of order, sum(packetBytes)"
scalar scenarioPRJP1.node[22].app 	dropPk:count 	9
attr interpolationmode  none
attr source  dropPk
attr title  "packets dropped, count"
scalar scenarioPRJP1.node[22].app 	dropPk:sum(packetBytes) 	4608
attr interpolationmode  none
attr source  dropPk
attr title  "packets dropped, sum(packetBytes)"
scalar scenarioPRJP1.node[22].app 	sentPk:count 	2616
attr interpolationmode  none
attr source  sentPk
attr title  "packets sent, count"
scalar scenarioPRJP1.node[22].app 	sentPk:sum(packetBytes) 	1339392
attr interpolationmode  none
attr source  sentPk
attr title  "packets sent, sum(packetBytes)"
scalar scenarioPRJP1.node[22].app 	rcvdPk:count 	207
attr interpolationmode  none
attr source  rcvdPk
attr title  "packets received, count"
scalar scenarioPRJP1.node[22].app 	rcvdPk:sum(packetBytes) 	105984
attr interpolationmode  none
attr source  rcvdPk
attr title  "packets received, sum(packetBytes)"
statistic scenarioPRJP1.node[22].app 	endToEndDelay:histogram
field count 207
field mean 2.2456770100125
field stddev 4.5604531862908
field sum 464.85514107259
field sqrsum 5328.247555749
field min 0.000964253868
field max 19.733344821557
attr interpolationmode  none
attr source  messageAge(rcvdPk)
attr title  "delay, histogram"
attr unit  s
bin	-INF	0
bin	-9.863421627415	0
bin	-8.5480097852385	0
bin	-7.2325979430619	0
bin	-5.9171861008854	0
bin	-4.6017742587089	0
bin	-3.2863624165323	0
bin	-1.9709505743558	0
bin	-0.65553873217927	136
bin	0.65987310999727	28
bin	1.9752849521738	6
bin	3.2906967943503	3
bin	4.6061086365269	4
bin	5.9215204787034	3
bin	7.2369323208799	3
bin	8.5523441630565	3
bin	9.867756005233	6
bin	11.18316784741	2
bin	12.498579689586	2
bin	13.813991531763	3
bin	15.129403373939	1
bin	16.444815216116	3
bin	17.760227058292	2
bin	19.075638900469	2
bin	20.391050742645	0
bin	21.706462584822	0
bin	23.021874426998	0
bin	24.337286269175	0
bin	25.652698111351	0
bin	26.968109953528	0
bin	28.283521795704	0
bin	29.598933637881	0
scalar scenarioPRJP1.node[22].udp 	droppedPkBadChecksum:count 	0
attr interpolationmode  none
attr title  "packets dropped (checksum error), count"
scalar scenarioPRJP1.node[22].udp 	droppedPkWrongPort:count 	0
attr interpolationmode  none
attr title  "packets dropped (wrong port), count"
scalar scenarioPRJP1.node[22].udp 	passedUpPk:count 	245
attr interpolationmode  none
attr title  "packets passed up, count"
scalar scenarioPRJP1.node[22].udp 	sentPk:count 	2616
attr interpolationmode  none
attr source  sentPk
attr title  "packets sent, count"
scalar scenarioPRJP1.node[22].udp 	sentPk:sum(packetBytes) 	1360320
attr interpolationmode  none
attr source  sentPk
attr title  "packets sent, sum(packetBytes)"
scalar scenarioPRJP1.node[22].udp 	rcvdPk:count 	245
attr interpolationmode  none
attr source  rcvdPk
attr title  "packets received, count"
scalar scenarioPRJP1.node[22].udp 	rcvdPk:sum(packetBytes) 	127400
attr interpolationmode  none
attr source  rcvdPk
attr title  "packets received, sum(packetBytes)"
scalar scenarioPRJP1.node[22].networkLayer.arp 	sentReply:count 	66
attr title  "ARP replies sent, count"
scalar scenarioPRJP1.node[22].networkLayer.arp 	sentReq:count 	351
attr title  "ARP request sent, count"
scalar scenarioPRJP1.node[22].networkLayer.arp 	failedARPResolution:count 	86
attr title  "ARP failed resolutions, count"
scalar scenarioPRJP1.node[22].networkLayer.arp 	completedARPResolution:count 	2072
attr title  "ARP completed resolutions, count"
scalar scenarioPRJP1.node[22].networkLayer.arp 	initiatedARPResolution:count 	151
attr title  "ARP initiated resolutions, count"
scalar scenarioPRJP1.node[22].mobility 	startTime 	2.5
scalar scenarioPRJP1.node[22].mobility 	totalTime 	947.5
scalar scenarioPRJP1.node[22].mobility 	stopTime 	950
scalar scenarioPRJP1.node[22].mobility 	minSpeed 	2.4754445943802e-013
scalar scenarioPRJP1.node[22].mobility 	maxSpeed 	19.603957133951
scalar scenarioPRJP1.node[22].mobility 	totalDistance 	8526.9843986142
scalar scenarioPRJP1.node[22].mobility 	totalCO2Emission 	2545.8036596715
scalar scenarioPRJP1.node[22].wlan.mgmt 	dropPkByQueue:count 	0
attr interpolationmode  none
attr source  dropPkByQueue
attr title  "packets dropped by queue, count"
scalar scenarioPRJP1.node[22].wlan.mgmt 	dropPkByQueue:sum(packetBytes) 	0
attr interpolationmode  none
attr source  dropPkByQueue
attr title  "packets dropped by queue, sum(packetBytes)"
scalar scenarioPRJP1.node[22].wlan.mgmt 	dataQueueLen:max 	24
attr interpolationmode  sample-hold
attr title  "data queue length, max"
scalar scenarioPRJP1.node[22].wlan.mgmt 	dataQueueLen:timeavg 	0.0042840841544095
attr interpolationmode  sample-hold
attr title  "data queue length, timeavg"
scalar scenarioPRJP1.node[22].wlan.mac 	"number of received packets" 	13978
scalar scenarioPRJP1.node[22].wlan.mac 	"number of collisions" 	81216
scalar scenarioPRJP1.node[22].wlan.mac 	"number of internal collisions" 	0
scalar scenarioPRJP1.node[22].wlan.mac 	"number of retry for AC 0" 	32678
scalar scenarioPRJP1.node[22].wlan.mac 	"number of retry for AC 1" 	0
scalar scenarioPRJP1.node[22].wlan.mac 	"number of retry for AC 2" 	0
scalar scenarioPRJP1.node[22].wlan.mac 	"number of retry for AC 3" 	0
scalar scenarioPRJP1.node[22].wlan.mac 	"sent and received bits" 	21481184
scalar scenarioPRJP1.node[22].wlan.mac 	"sent packet within AC 0" 	5951
scalar scenarioPRJP1.node[22].wlan.mac 	"sent packet within AC 1" 	0
scalar scenarioPRJP1.node[22].wlan.mac 	"sent packet within AC 2" 	0
scalar scenarioPRJP1.node[22].wlan.mac 	"sent packet within AC 3" 	0
scalar scenarioPRJP1.node[22].wlan.mac 	"sent in TXOP " 	0
scalar scenarioPRJP1.node[22].wlan.mac 	"sentWithoutRetry AC 0" 	5316
scalar scenarioPRJP1.node[22].wlan.mac 	"sentWithoutRetry AC 1" 	0
scalar scenarioPRJP1.node[22].wlan.mac 	"sentWithoutRetry AC 2" 	0
scalar scenarioPRJP1.node[22].wlan.mac 	"sentWithoutRetry AC 3" 	0
scalar scenarioPRJP1.node[22].wlan.mac 	"numGivenUp AC 0" 	5220
scalar scenarioPRJP1.node[22].wlan.mac 	"numGivenUp AC 1" 	0
scalar scenarioPRJP1.node[22].wlan.mac 	"numGivenUp AC 2" 	0
scalar scenarioPRJP1.node[22].wlan.mac 	"numGivenUp AC 3" 	0
scalar scenarioPRJP1.node[22].wlan.mac 	"numDropped AC 0" 	59
scalar scenarioPRJP1.node[22].wlan.mac 	"numDropped AC 1" 	0
scalar scenarioPRJP1.node[22].wlan.mac 	"numDropped AC 2" 	0
scalar scenarioPRJP1.node[22].wlan.mac 	"numDropped AC 3" 	0
scalar scenarioPRJP1.node[22].wlan.mac 	rcvdPkFromHL:count 	23738
attr interpolationmode  none
attr source  packetReceivedFromUpper
attr title  "packets received from higher layer, count"
scalar scenarioPRJP1.node[22].wlan.mac 	rcvdPkFromHL:sum(packetBytes) 	4678264
attr interpolationmode  none
attr source  packetReceivedFromUpper
attr title  "packets received from higher layer, sum(packetBytes)"
scalar scenarioPRJP1.node[22].wlan.mac 	passedUpPk:count 	55265
attr interpolationmode  none
attr source  packetSentToUpper
attr title  "packets passed to higher layer, count"
scalar scenarioPRJP1.node[22].wlan.mac 	passedUpPk:sum(packetBytes) 	5572568
attr interpolationmode  none
attr source  packetSentToUpper
attr title  "packets passed to higher layer, sum(packetBytes)"
scalar scenarioPRJP1.node[22].wlan.mac 	rcvdPkFromLL:count 	393167
attr interpolationmode  none
attr source  packetReceivedFromLower
attr title  "packets received from lower layer, count"
scalar scenarioPRJP1.node[22].wlan.mac 	rcvdPkFromLL:sum(packetBytes) 	95305726
attr interpolationmode  none
attr source  packetReceivedFromLower
attr title  "packets received from lower layer, sum(packetBytes)"
scalar scenarioPRJP1.node[22].wlan.mac 	sentDownPk:count 	70335
attr interpolationmode  none
attr source  packetSentToLower
attr title  "packets sent to lower layer, count"
scalar scenarioPRJP1.node[22].wlan.mac 	sentDownPk:sum(packetBytes) 	17323452
attr interpolationmode  none
attr source  packetSentToLower
attr title  "packets sent to lower layer, sum(packetBytes)"
[...]
bin	-0.43333333333333	0
bin	-0.4	0
bin	-0.36666666666667	0
bin	-0.33333333333333	0
bin	-0.3	0
bin	-0.26666666666667	0
bin	-0.23333333333333	0
bin	-0.2	0
bin	-0.16666666666667	0
bin	-0.13333333333333	0
bin	-0.1	0
bin	-0.066666666666667	0
bin	-0.033333333333333	0
bin	-6.9388939039072e-018	0
bin	0.033333333333333	0
bin	0.066666666666667	0
bin	0.1	0
bin	0.13333333333333	0
bin	0.16666666666667	0
bin	0.2	0
bin	0.23333333333333	0
bin	0.26666666666667	0
bin	0.3	0
bin	0.33333333333333	0
bin	0.36666666666667	0
bin	0.4	0
bin	0.43333333333333	0
bin	0.46666666666667	0
bin	0.5	0
statistic scenarioPRJP1.node[55].wlan.radio 	bitErrorRate:histogram
field count 0
field mean nan
field stddev nan
field sum 0
field sqrsum 0
field min nan
field max nan
attr source  bitErrorRate
attr title  "Bit error rate, histogram"
bin	-INF	0
bin	-0.5	0
bin	-0.46666666666667	0
bin	-0.43333333333333	0
bin	-0.4	0
bin	-0.36666666666667	0
bin	-0.33333333333333	0
bin	-0.3	0
bin	-0.26666666666667	0
bin	-0.23333333333333	0
bin	-0.2	0
bin	-0.16666666666667	0
bin	-0.13333333333333	0
bin	-0.1	0
bin	-0.066666666666667	0
bin	-0.033333333333333	0
bin	-6.9388939039072e-018	0
bin	0.033333333333333	0
bin	0.066666666666667	0
bin	0.1	0
bin	0.13333333333333	0
bin	0.16666666666667	0
bin	0.2	0
bin	0.23333333333333	0
bin	0.26666666666667	0
bin	0.3	0
bin	0.33333333333333	0
bin	0.36666666666667	0
bin	0.4	0
bin	0.43333333333333	0
bin	0.46666666666667	0
bin	0.5	0
statistic scenarioPRJP1.node[55].wlan.radio 	packetErrorRate:histogram
field count 331366
field mean 0.15036185674289
field stddev 0.34974207969579
field sum 49824.807021466
field sqrsum 48024.159005835
field min 0
field max 1
attr source  packetErrorRate
attr title  "Packet error rate, histogram"
bin	-INF	0
bin	-2.9263773604349e-007	0
bin	-2.5361937123769e-007	0
bin	-2.1460100643189e-007	0
bin	-1.7558264162609e-007	0
bin	-1.3656427682029e-007	0
bin	-9.7545912014496e-008	0
bin	-5.8527547208698e-008	0
bin	-1.9509182402899e-008	242940
bin	1.9509182402899e-008	1848
bin	5.8527547208698e-008	913
bin	9.7545912014496e-008	636
bin	1.3656427682029e-007	416
bin	1.7558264162609e-007	369
bin	2.1460100643189e-007	310
bin	2.5361937123769e-007	289
bin	2.9263773604349e-007	225
bin	3.3165610084929e-007	201
bin	3.7067446565509e-007	203
bin	4.0969283046088e-007	170
bin	4.4871119526668e-007	154
bin	4.8772956007248e-007	157
bin	5.2674792487828e-007	117
bin	5.6576628968408e-007	141
bin	6.0478465448988e-007	106
bin	6.4380301929567e-007	115
bin	6.8282138410147e-007	100
bin	7.2183974890727e-007	95
bin	7.6085811371307e-007	99
bin	7.9987647851887e-007	90
bin	8.3889484332467e-007	72
bin	8.7791320813047e-007	81600
statistic scenarioPRJP1.node[55].wlan.radio 	minSNIR:histogram
field count 331366
field mean 5963.3638511966
field stddev 43042.52049933
field sum 1976056025.9156
field sqrsum 6.2569014843084e+014
field min 0.00016917799964409
field max 841304.2513806
attr source  minSNIR
attr title  "Min SNIR, histogram"
bin	-INF	0
bin	-121.82716825082	0
bin	-105.04375604246	0
bin	-88.260343834092	0
bin	-71.476931625727	0
bin	-54.693519417361	0
bin	-37.910107208996	0
bin	-21.12669500063	0
bin	-4.3432827922647	112365
bin	12.440129416101	37434
bin	29.223541624466	17586
bin	46.006953832832	11655
bin	62.790366041197	8609
bin	79.573778249563	7070
bin	96.357190457928	5466
bin	113.14060266629	4870
bin	129.92401487466	5609
bin	146.70742708302	5356
bin	163.49083929139	4175
bin	180.27425149976	3641
bin	197.05766370812	3131
bin	213.84107591649	2735
bin	230.62448812485	2575
bin	247.40790033322	2180
bin	264.19131254158	2119
bin	280.97472474995	1731
bin	297.75813695831	1606
bin	314.54154916668	1612
bin	331.32496137504	1516
bin	348.10837358341	1372
bin	364.89178579178	1263
bin	381.67519800014	85690
scalar scenarioPRJP1.node[55].wlan.radio 	transmissionState:count 	286712
attr interpolationmode  sample-hold
attr source  transmissionStateChanged
attr title  "Radio transmission state, count"
scalar scenarioPRJP1.node[55].wlan.radio 	receptionState:count 	818100
attr interpolationmode  sample-hold
attr source  receptionStateChanged
attr title  "Radio reception state, count"
scalar scenarioPRJP1.node[55].wlan.radio 	radioMode:count 	143358
attr interpolationmode  sample-hold
attr source  radioModeChanged
attr title  "Radio mode, count"
statistic scenarioPRJP1.node[55].wlan.radio 	radioChannel:histogram
field count 1
field mean 3
field stddev nan
field sum 3
field sqrsum 9
field min 3
field max 3
attr interpolationmode  sample-hold
attr source  radioChannelChanged
attr title  "Radio channel, histogram"
bin	-INF	0
bin	2	0
bin	3	1
bin	4	0
scalar scenarioPRJP1.node[55].lo0.lo 	droppedPkBitError:count 	0
attr interpolationmode  none
attr source  dropPkBitError
attr title  "packets dropped/bit error, count"
scalar scenarioPRJP1.node[55].lo0.lo 	droppedPkBitError:sum(packetBytes) 	0
attr interpolationmode  none
attr source  dropPkBitError
attr title  "packets dropped/bit error, sum(packetBytes)"
scalar scenarioPRJP1.node[55].lo0.lo 	rcvdPkFromHL:count 	180
attr interpolationmode  none
attr source  packetReceivedFromUpper
attr title  "packets received from higher layer, count"
scalar scenarioPRJP1.node[55].lo0.lo 	rcvdPkFromHL:sum(packetBytes) 	93600
attr interpolationmode  none
attr source  packetReceivedFromUpper
attr title  "packets received from higher layer, sum(packetBytes)"
scalar scenarioPRJP1.node[55].lo0.lo 	passedUpPk:count 	180
attr interpolationmode  none
attr source  packetSentToUpper
attr title  "packets passed to higher layer, count"
scalar scenarioPRJP1.node[55].lo0.lo 	passedUpPk:sum(packetBytes) 	93600
attr interpolationmode  none
attr source  packetSentToUpper
attr title  "packets passed to higher layer, sum(packetBytes)"
scalar scenarioPRJP1.node[71].app 	"Total sent" 	2617
scalar scenarioPRJP1.node[71].app 	"Total received" 	161
scalar scenarioPRJP1.node[71].app 	"Total deleted" 	12
scalar scenarioPRJP1.node[71].app 	outOfOrderPk:count 	18
attr interpolationmode  none
attr source  outOfOrderPk
attr title  "packets received out of order, count"
scalar scenarioPRJP1.node[71].app 	outOfOrderPk:sum(packetBytes) 	9216
attr interpolationmode  none
attr source  outOfOrderPk
attr title  "packets received out of order, sum(packetBytes)"
scalar scenarioPRJP1.node[71].app 	dropPk:count 	12
attr interpolationmode  none
attr source  dropPk
attr title  "packets dropped, count"
scalar scenarioPRJP1.node[71].app 	dropPk:sum(packetBytes) 	6144
attr interpolationmode  none
attr source  dropPk
attr title  "packets dropped, sum(packetBytes)"
scalar scenarioPRJP1.node[71].app 	sentPk:count 	2617
attr interpolationmode  none
attr source  sentPk
attr title  "packets sent, count"
scalar scenarioPRJP1.node[71].app 	sentPk:sum(packetBytes) 	1339904
attr interpolationmode  none
attr source  sentPk
attr title  "packets sent, sum(packetBytes)"
scalar scenarioPRJP1.node[71].app 	rcvdPk:count 	161
attr interpolationmode  none
attr source  rcvdPk
attr title  "packets received, count"
scalar scenarioPRJP1.node[71].app 	rcvdPk:sum(packetBytes) 	82432
attr interpolationmode  none
attr source  rcvdPk
attr title  "packets received, sum(packetBytes)"
statistic scenarioPRJP1.node[71].app 	endToEndDelay:histogram
field count 161
field mean 2.1709078918759
field stddev 4.3549866217641
field sum 349.51617059203
field sqrsum 3793.3127691956
field min 0.00100806564
field max 19.62708293734
attr interpolationmode  none
attr source  messageAge(rcvdPk)
attr title  "delay, histogram"
attr unit  s
bin	-INF	0
bin	-9.655645304685	0
bin	-8.3680713928743	0
bin	-7.0804974810637	0
bin	-5.792923569253	0
bin	-4.5053496574423	0
bin	-3.2177757456317	0
bin	-1.930201833821	0
bin	-0.64262792201033	96
bin	0.64494598980033	27
bin	1.932519901611	6
bin	3.2200938134217	7
bin	4.5076677252323	5
bin	5.795241637043	2
bin	7.0828155488537	4
bin	8.3703894606643	2
bin	9.657963372475	2
bin	10.945537284286	1
bin	12.233111196096	1
bin	13.520685107907	0
bin	14.808259019718	2
bin	16.095832931528	1
bin	17.383406843339	2
bin	18.67098075515	3
bin	19.95855466696	0
bin	21.246128578771	0
bin	22.533702490582	0
bin	23.821276402392	0
bin	25.108850314203	0
bin	26.396424226014	0
bin	27.683998137824	0
bin	28.971572049635	0
scalar scenarioPRJP1.node[71].udp 	droppedPkBadChecksum:count 	0
attr interpolationmode  none
attr title  "packets dropped (checksum error), count"
scalar scenarioPRJP1.node[71].udp 	droppedPkWrongPort:count 	0
attr interpolationmode  none
attr title  "packets dropped (wrong port), count"
scalar scenarioPRJP1.node[71].udp 	passedUpPk:count 	191
attr interpolationmode  none
attr title  "packets passed up, count"
scalar scenarioPRJP1.node[71].udp 	sentPk:count 	2617
attr interpolationmode  none
attr source  sentPk
attr title  "packets sent, count"
scalar scenarioPRJP1.node[71].udp 	sentPk:sum(packetBytes) 	1360840
attr interpolationmode  none
attr source  sentPk
attr title  "packets sent, sum(packetBytes)"
scalar scenarioPRJP1.node[71].udp 	rcvdPk:count 	191
attr interpolationmode  none
attr source  rcvdPk
attr title  "packets received, count"
scalar scenarioPRJP1.node[71].udp 	rcvdPk:sum(packetBytes) 	99320
attr interpolationmode  none
attr source  rcvdPk
attr title  "packets received, sum(packetBytes)"
scalar scenarioPRJP1.node[71].networkLayer.arp 	sentReply:count 	64
attr title  "ARP replies sent, count"
scalar scenarioPRJP1.node[71].networkLayer.arp 	sentReq:count 	166
attr title  "ARP request sent, count"
scalar scenarioPRJP1.node[71].networkLayer.arp 	failedARPResolution:count 	22
attr title  "ARP failed resolutions, count"
scalar scenarioPRJP1.node[71].networkLayer.arp 	completedARPResolution:count 	1752
attr title  "ARP completed resolutions, count"
scalar scenarioPRJP1.node[71].networkLayer.arp 	initiatedARPResolution:count 	93
attr title  "ARP initiated resolutions, count"
scalar scenarioPRJP1.node[71].mobility 	startTime 	7.3
scalar scenarioPRJP1.node[71].mobility 	totalTime 	942.7
scalar scenarioPRJP1.node[71].mobility 	stopTime 	950
scalar scenarioPRJP1.node[71].mobility 	minSpeed 	2.4757614977644e-013
scalar scenarioPRJP1.node[71].mobility 	maxSpeed 	16.294179866956
scalar scenarioPRJP1.node[71].mobility 	totalDistance 	8065.2167979138
scalar scenarioPRJP1.node[71].mobility 	totalCO2Emission 	2235.4758436988
scalar scenarioPRJP1.node[71].wlan.mgmt 	dropPkByQueue:count 	0
attr interpolationmode  none
attr source  dropPkByQueue
attr title  "packets dropped by queue, count"
scalar scenarioPRJP1.node[71].wlan.mgmt 	dropPkByQueue:sum(packetBytes) 	0
attr interpolationmode  none
attr source  dropPkByQueue
attr title  "packets dropped by queue, sum(packetBytes)"
scalar scenarioPRJP1.node[71].wlan.mgmt 	dataQueueLen:max 	37
attr interpolationmode  sample-hold
attr title  "data queue length, max"
scalar scenarioPRJP1.node[71].wlan.mgmt 	dataQueueLen:timeavg 	0.090756174172933
attr interpolationmode  sample-hold
attr title  "data queue length, timeavg"
scalar scenarioPRJP1.node[71].wlan.mac 	"number of received packets" 	13435
scalar scenarioPRJP1.node[71].wlan.mac 	"number of collisions" 	64956
scalar scenarioPRJP1.node[71].wlan.mac 	"number of internal collisions" 	0
scalar scenarioPRJP1.node[71].wlan.mac 	"number of retry for AC 0" 	30281
scalar scenarioPRJP1.node[71].wlan.mac 	"number of retry for AC 1" 	0
scalar scenarioPRJP1.node[71].wlan.mac 	"number of retry for AC 2" 	0
scalar scenarioPRJP1.node[71].wlan.mac 	"number of retry for AC 3" 	0
scalar scenarioPRJP1.node[71].wlan.mac 	"sent and received bits" 	18162720
scalar scenarioPRJP1.node[71].wlan.mac 	"sent packet within AC 0" 	4515
scalar scenarioPRJP1.node[71].wlan.mac 	"sent packet within AC 1" 	0
scalar scenarioPRJP1.node[71].wlan.mac 	"sent packet within AC 2" 	0
scalar scenarioPRJP1.node[71].wlan.mac 	"sent packet within AC 3" 	0
scalar scenarioPRJP1.node[71].wlan.mac 	"sent in TXOP " 	0
scalar scenarioPRJP1.node[71].wlan.mac 	"sentWithoutRetry AC 0" 	4013
scalar scenarioPRJP1.node[71].wlan.mac 	"sentWithoutRetry AC 1" 	0
scalar scenarioPRJP1.node[71].wlan.mac 	"sentWithoutRetry AC 2" 	0
scalar scenarioPRJP1.node[71].wlan.mac 	"sentWithoutRetry AC 3" 	0
scalar scenarioPRJP1.node[71].wlan.mac 	"numGivenUp AC 0" 	4870
scalar scenarioPRJP1.node[71].wlan.mac 	"numGivenUp AC 1" 	0
scalar scenarioPRJP1.node[71].wlan.mac 	"numGivenUp AC 2" 	0
scalar scenarioPRJP1.node[71].wlan.mac 	"numGivenUp AC 3" 	0
scalar scenarioPRJP1.node[71].wlan.mac 	"numDropped AC 0" 	331
scalar scenarioPRJP1.node[71].wlan.mac 	"numDropped AC 1" 	0
scalar scenarioPRJP1.node[71].wlan.mac 	"numDropped AC 2" 	0
scalar scenarioPRJP1.node[71].wlan.mac 	"numDropped AC 3" 	0
scalar scenarioPRJP1.node[71].wlan.mac 	rcvdPkFromHL:count 	22306
attr interpolationmode  none
attr source  packetReceivedFromUpper
attr title  "packets received from higher layer, count"
scalar scenarioPRJP1.node[71].wlan.mac 	rcvdPkFromHL:sum(packetBytes) 	4214232
attr interpolationmode  none
attr source  packetReceivedFromUpper
attr title  "packets received from higher layer, sum(packetBytes)"
scalar scenarioPRJP1.node[71].wlan.mac 	passedUpPk:count 	48471
attr interpolationmode  none
attr source  packetSentToUpper
attr title  "packets passed to higher layer, count"
scalar scenarioPRJP1.node[71].wlan.mac 	passedUpPk:sum(packetBytes) 	4728632
attr interpolationmode  none
attr source  packetSentToUpper
attr title  "packets passed to higher layer, sum(packetBytes)"
scalar scenarioPRJP1.node[71].wlan.mac 	rcvdPkFromLL:count 	325955
attr interpolationmode  none
attr source  packetReceivedFromLower
attr title  "packets received from lower layer, count"
scalar scenarioPRJP1.node[71].wlan.mac 	rcvdPkFromLL:sum(packetBytes) 	76660762
attr interpolationmode  none
attr source  packetReceivedFromLower
attr title  "packets received from lower layer, sum(packetBytes)"
scalar scenarioPRJP1.node[71].wlan.mac 	sentDownPk:count 	65690
attr interpolationmode  none
attr source  packetSentToLower
attr title  "packets sent to lower layer, count"
scalar scenarioPRJP1.node[71].wlan.mac 	sentDownPk:sum(packetBytes) 	15991498
attr interpolationmode  none
attr source  packetSentToLower
attr title  "packets sent to lower layer, sum(packetBytes)"
statistic scenarioPRJP1.node[71].wlan.radio 	symbolErrorRate:histogram
field count 0
field mean nan
field stddev nan
field sum 0
field sqrsum 0
field min nan
field max nan
attr source  symbolErrorRate
attr title  "Symbol error rate, histogram"
bin	-INF	0
bin	-0.5	0
bin	-0.46666666666667	0
bin	-0.43333333333333	0
bin	-0.4	0
bin	-0.36666666666667	0
bin	-0.33333333333333	0
bin	-0.3	0
bin	-0.26666666666667	0
bin	-0.23333333333333	0
bin	-0.2	0
bin	-0.16666666666667	0
bin	-0.13333333333333	0
bin	-0.1	0
bin	-0.066666666666667	0
bin	-0.033333333333333	0
bin	-6.9388939039072e-018	0
bin	0.033333333333333	0
bin	0.066666666666667	0
bin	0.1	0
bin	0.13333333333333	0
bin	0.16666666666667	0
bin	0.2	0
bin	0.23333333333333	0
bin	0.26666666666667	0
bin	0.3	0
bin	0.33333333333333	0
bin	0.36666666666667	0
bin	0.4	0
bin	0.43333333333333	0
bin	0.46666666666667	0
bin	0.5	0
statistic scenarioPRJP1.node[71].wlan.radio 	bitErrorRate:histogram
field count 0
field mean nan
field stddev nan
field sum 0
field sqrsum 0
field min nan
field max nan
attr source  bitErrorRate
attr title  "Bit error rate, histogram"
bin	-INF	0
bin	-0.5	0
bin	-0.46666666666667	0
bin	-0.43333333333333	0
bin	-0.4	0
bin	-0.36666666666667	0
bin	-0.33333333333333	0
bin	-0.3	0
bin	-0.26666666666667	0
bin	-0.23333333333333	0
bin	-0.2	0
bin	-0.16666666666667	0
bin	-0.13333333333333	0
bin	-0.1	0
bin	-0.066666666666667	0
bin	-0.033333333333333	0
bin	-6.9388939039072e-018	0
bin	0.033333333333333	0
bin	0.066666666666667	0
bin	0.1	0
bin	0.13333333333333	0
bin	0.16666666666667	0
bin	0.2	0
bin	0.23333333333333	0
bin	0.26666666666667	0
bin	0.3	0
bin	0.33333333333333	0
bin	0.36666666666667	0
bin	0.4	0
bin	0.43333333333333	0
bin	0.46666666666667	0
bin	0.5	0
statistic scenarioPRJP1.node[71].wlan.radio 	packetErrorRate:histogram
field count 325955
field mean 0.18629242617141
field stddev 0.38118399703013
field sum 60722.947772702
field sqrsum 58673.745514785
field min 0
field max 1
attr source  packetErrorRate
attr title  "Packet error rate, histogram"
bin	-INF	0
bin	-0.0033346705515851	0
bin	-0.0028900478113737	0
bin	-0.0024454250711624	0
bin	-0.0020008023309511	0
bin	-0.0015561795907397	0
bin	-0.0011115568505284	0
bin	-0.00066693411031702	0
bin	-0.00022231137010567	242054
bin	0.00022231137010567	2920
bin	0.00066693411031702	1455
bin	0.0011115568505284	987
bin	0.0015561795907397	772
bin	0.0020008023309511	547
bin	0.0024454250711624	516
bin	0.0028900478113737	369
bin	0.0033346705515851	374
bin	0.0037792932917964	316
bin	0.0042239160320078	307
bin	0.0046685387722191	272
bin	0.0051131615124305	230
bin	0.0055577842526418	245
bin	0.0060024069928532	232
bin	0.0064470297330645	204
bin	0.0068916524732759	179
bin	0.0073362752134872	177
bin	0.0077808979536986	165
bin	0.0082255206939099	173
bin	0.0086701434341212	147
bin	0.0091147661743326	144
bin	0.0095593889145439	146
bin	0.010004011654755	73024
statistic scenarioPRJP1.node[71].wlan.radio 	minSNIR:histogram
field count 325955
field mean 2894.0465883082
field stddev 30643.828754588
field sum 943328955.69199
field sqrsum 3.0881526439221e+014
field min 0.00016972781111825
field max 753239.71923443
attr source  minSNIR
attr title  "Min SNIR, histogram"
bin	-INF	0
bin	-682.65473629772	0
bin	-591.30843457063	0
bin	-499.96213284355	0
bin	-408.61583111646	0
bin	-317.26952938938	0
bin	-225.92322766229	0
bin	-134.5769259352	0
bin	-43.230624208119	192567
bin	48.115677518967	39516
bin	139.46197924605	21735
bin	230.80828097314	11488
bin	322.15458270022	7129
bin	413.50088442731	4637
bin	504.8471861544	3610
bin	596.19348788148	2945
bin	687.53978960857	2289
bin	778.88609133565	2034
bin	870.23239306274	1829
bin	961.57869478982	1509
bin	1052.9249965169	1329
bin	1144.271298244	1262
bin	1235.6175999711	1140
bin	1326.9639016982	969
bin	1418.3102034253	896
bin	1509.6565051523	707
bin	1601.0028068794	698
bin	1692.3491086065	612
bin	1783.6954103336	633
bin	1875.0417120607	533
bin	1966.3880137878	495
bin	2057.7343155149	25393
scalar scenarioPRJP1.node[71].wlan.radio 	transmissionState:count 	262760
attr interpolationmode  sample-hold
attr source  transmissionStateChanged
attr title  "Radio transmission state, count"
scalar scenarioPRJP1.node[71].wlan.radio 	receptionState:count 	797834
attr interpolationmode  sample-hold
attr source  receptionStateChanged
attr title  "Radio reception state, count"
scalar scenarioPRJP1.node[71].wlan.radio 	radioMode:count 	131382
attr interpolationmode  sample-hold
attr source  radioModeChanged
attr title  "Radio mode, count"
statistic scenarioPRJP1.node[71].wlan.radio 	radioChannel:histogram
field count 1
field mean 3
field stddev nan
field sum 3
field sqrsum 9
field min 3
field max 3
attr interpolationmode  sample-hold
attr source  radioChannelChanged
attr title  "Radio channel, histogram"
bin	-INF	0
bin	2	0
bin	3	1
bin	4	0
scalar scenarioPRJP1.node[71].lo0.lo 	droppedPkBitError:count 	0
attr interpolationmode  none
attr source  dropPkBitError
attr title  "packets dropped/bit error, count"
scalar scenarioPRJP1.node[71].lo0.lo 	droppedPkBitError:sum(packetBytes) 	0
attr interpolationmode  none
attr source  dropPkBitError
attr title  "packets dropped/bit error, sum(packetBytes)"
scalar scenarioPRJP1.node[71].lo0.lo 	rcvdPkFromHL:count 	191
attr interpolationmode  none
attr source  packetReceivedFromUpper
attr title  "packets received from higher layer, count"
scalar scenarioPRJP1.node[71].lo0.lo 	rcvdPkFromHL:sum(packetBytes) 	99320
attr interpolationmode  none
attr source  packetReceivedFromUpper
attr title  "packets received from higher layer, sum(packetBytes)"
scalar scenarioPRJP1.node[71].lo0.lo 	passedUpPk:count 	191
attr interpolationmode  none
attr source  packetSentToUpper
attr title  "packets passed to higher layer, count"
scalar scenarioPRJP1.node[71].lo0.lo 	passedUpPk:sum(packetBytes) 	99320
attr interpolationmode  none
attr source  packetSentToUpper
attr title  "packets passed to higher layer, sum(packetBytes)"
