version 2
run OLSR-ETX-TRG-25n-17-20150804-11:25:58-21343
attr configname OLSR-ETX-TRG-25n
attr datetime 20150804-11:25:58
attr experiment OLSR-ETX-TRG-25n
attr inifile omnetpp.ini
attr iterationvars ""
attr iterationvars2 $repetition=17
attr measurement ""
attr network Prj_Part1_propag.scenarioPRJP1
attr processid 21343
attr repetition 17
attr replication #17
attr resultdir results
attr runnumber 17
attr seedset 17

scalar scenarioPRJP1.radioMedium.propagation 	"Arrival computation count" 	2409232
scalar scenarioPRJP1.radioMedium 	"transmission count" 	100394
scalar scenarioPRJP1.radioMedium 	"radio frame send count" 	2409221
scalar scenarioPRJP1.radioMedium 	"reception computation count" 	2396394
scalar scenarioPRJP1.radioMedium 	"interference computation count" 	7056946
scalar scenarioPRJP1.radioMedium 	"reception decision computation count" 	206347
scalar scenarioPRJP1.radioMedium 	"listening decision computation count" 	4482767
scalar scenarioPRJP1.radioMedium 	"reception cache hit" 	80.669021012207
attr unit  %
scalar scenarioPRJP1.radioMedium 	"interference cache hit" 	50
attr unit  %
scalar scenarioPRJP1.radioMedium 	"noise cache hit" 	0
attr unit  %
scalar scenarioPRJP1.radioMedium 	"snir cache hit" 	0
attr unit  %
scalar scenarioPRJP1.radioMedium 	"reception decision cache hit" 	0
attr unit  %
scalar scenarioPRJP1.node[0].app 	"Total sent" 	2611
scalar scenarioPRJP1.node[0].app 	"Total received" 	104
scalar scenarioPRJP1.node[0].app 	"Total deleted" 	0
scalar scenarioPRJP1.node[0].app 	dropPk:count 	0
attr interpolationmode  none
attr source  dropPk
attr title  "packets dropped, count"
scalar scenarioPRJP1.node[0].app 	dropPk:sum(packetBytes) 	0
attr interpolationmode  none
attr source  dropPk
attr title  "packets dropped, sum(packetBytes)"
scalar scenarioPRJP1.node[0].app 	outOfOrderPk:count 	0
attr interpolationmode  none
attr source  outOfOrderPk
attr title  "packets received out of order, count"
scalar scenarioPRJP1.node[0].app 	outOfOrderPk:sum(packetBytes) 	0
attr interpolationmode  none
attr source  outOfOrderPk
attr title  "packets received out of order, sum(packetBytes)"
scalar scenarioPRJP1.node[0].app 	rcvdPk:count 	104
attr interpolationmode  none
attr source  rcvdPk
attr title  "packets received, count"
scalar scenarioPRJP1.node[0].app 	rcvdPk:sum(packetBytes) 	53248
attr interpolationmode  none
attr source  rcvdPk
attr title  "packets received, sum(packetBytes)"
statistic scenarioPRJP1.node[0].app 	endToEndDelay:histogram
field count 104
field mean 0.0029880017664808
field stddev 0.0052809875782963
field sum 0.310752183714
field sqrsum 0.0038010775434936
field min 0.000945127349
field max 0.031493683041
attr interpolationmode  none
attr source  messageAge(rcvdPk)
attr title  "delay, histogram"
attr unit  s
bin	-INF	0
bin	-0.014329150497	0
bin	-0.012292580117533	0
bin	-0.010256009738067	0
bin	-0.0082194393586	0
bin	-0.0061828689791333	0
bin	-0.0041462985996667	0
bin	-0.0021097282202	0
bin	-7.3157840733333e-05	75
bin	0.0019634125387333	14
bin	0.0039999829182	2
bin	0.0060365532976667	6
bin	0.0080731236771333	0
bin	0.0101096940566	1
bin	0.012146264436067	1
bin	0.014182834815533	1
bin	0.016219405195	1
bin	0.018255975574467	0
bin	0.020292545953933	0
bin	0.0223291163334	1
bin	0.024365686712867	0
bin	0.026402257092333	0
bin	0.0284388274718	1
bin	0.030475397851267	1
bin	0.032511968230733	0
bin	0.0345485386102	0
bin	0.036585108989667	0
bin	0.038621679369133	0
bin	0.0406582497486	0
bin	0.042694820128067	0
bin	0.044731390507533	0
bin	0.046767960887	0
scalar scenarioPRJP1.node[0].app 	sentPk:count 	2611
attr interpolationmode  none
attr source  sentPk
attr title  "packets sent, count"
scalar scenarioPRJP1.node[0].app 	sentPk:sum(packetBytes) 	1336832
attr interpolationmode  none
attr source  sentPk
attr title  "packets sent, sum(packetBytes)"
scalar scenarioPRJP1.node[0].udp 	droppedPkBadChecksum:count 	0
attr interpolationmode  none
attr title  "packets dropped (checksum error), count"
scalar scenarioPRJP1.node[0].udp 	droppedPkWrongPort:count 	0
attr interpolationmode  none
attr title  "packets dropped (wrong port), count"
scalar scenarioPRJP1.node[0].udp 	passedUpPk:count 	104
attr interpolationmode  none
attr title  "packets passed up, count"
scalar scenarioPRJP1.node[0].udp 	rcvdPk:count 	104
attr interpolationmode  none
attr source  rcvdPk
attr title  "packets received, count"
scalar scenarioPRJP1.node[0].udp 	rcvdPk:sum(packetBytes) 	54080
attr interpolationmode  none
attr source  rcvdPk
attr title  "packets received, sum(packetBytes)"
scalar scenarioPRJP1.node[0].udp 	sentPk:count 	2611
attr interpolationmode  none
attr source  sentPk
attr title  "packets sent, count"
scalar scenarioPRJP1.node[0].udp 	sentPk:sum(packetBytes) 	1357720
attr interpolationmode  none
attr source  sentPk
attr title  "packets sent, sum(packetBytes)"
scalar scenarioPRJP1.node[0].networkLayer.arp 	failedARPResolution:count 	4
attr title  "ARP failed resolutions, count"
scalar scenarioPRJP1.node[0].networkLayer.arp 	completedARPResolution:count 	45
attr title  "ARP completed resolutions, count"
scalar scenarioPRJP1.node[0].networkLayer.arp 	initiatedARPResolution:count 	23
attr title  "ARP initiated resolutions, count"
scalar scenarioPRJP1.node[0].networkLayer.arp 	sentReply:count 	8
attr title  "ARP replies sent, count"
scalar scenarioPRJP1.node[0].networkLayer.arp 	sentReq:count 	32
attr title  "ARP request sent, count"
scalar scenarioPRJP1.node[0].mobility 	startTime 	0.1
scalar scenarioPRJP1.node[0].mobility 	totalTime 	949.9
scalar scenarioPRJP1.node[0].mobility 	stopTime 	950
scalar scenarioPRJP1.node[0].mobility 	minSpeed 	2.4754980064931e-13
scalar scenarioPRJP1.node[0].mobility 	maxSpeed 	18.687144384945
scalar scenarioPRJP1.node[0].mobility 	totalDistance 	10707.34157587
scalar scenarioPRJP1.node[0].mobility 	totalCO2Emission 	2724.2486819681
scalar scenarioPRJP1.node[0].wlan.mgmt 	dataQueueLen:max 	0
attr interpolationmode  sample-hold
attr title  "data queue length, max"
scalar scenarioPRJP1.node[0].wlan.mgmt 	dataQueueLen:timeavg 	0
attr interpolationmode  sample-hold
attr title  "data queue length, timeavg"
scalar scenarioPRJP1.node[0].wlan.mgmt 	dropPkByQueue:count 	0
attr interpolationmode  none
attr source  dropPkByQueue
attr title  "packets dropped by queue, count"
scalar scenarioPRJP1.node[0].wlan.mgmt 	dropPkByQueue:sum(packetBytes) 	0
attr interpolationmode  none
attr source  dropPkByQueue
attr title  "packets dropped by queue, sum(packetBytes)"
scalar scenarioPRJP1.node[0].wlan.mac 	"number of received packets" 	455
scalar scenarioPRJP1.node[0].wlan.mac 	"number of collisions" 	238
scalar scenarioPRJP1.node[0].wlan.mac 	"number of internal collisions" 	0
scalar scenarioPRJP1.node[0].wlan.mac 	"number of retry for AC 0" 	1050
scalar scenarioPRJP1.node[0].wlan.mac 	"number of retry for AC 1" 	12
scalar scenarioPRJP1.node[0].wlan.mac 	"number of retry for AC 2" 	0
scalar scenarioPRJP1.node[0].wlan.mac 	"number of retry for AC 3" 	0
scalar scenarioPRJP1.node[0].wlan.mac 	"sent and received bits" 	13255200
scalar scenarioPRJP1.node[0].wlan.mac 	"sent packet within AC 0" 	85
scalar scenarioPRJP1.node[0].wlan.mac 	"sent packet within AC 1" 	3
scalar scenarioPRJP1.node[0].wlan.mac 	"sent packet within AC 2" 	0
scalar scenarioPRJP1.node[0].wlan.mac 	"sent packet within AC 3" 	0
scalar scenarioPRJP1.node[0].wlan.mac 	"sent in TXOP " 	0
scalar scenarioPRJP1.node[0].wlan.mac 	"sentWithoutRetry AC 0" 	83
scalar scenarioPRJP1.node[0].wlan.mac 	"sentWithoutRetry AC 1" 	3
scalar scenarioPRJP1.node[0].wlan.mac 	"sentWithoutRetry AC 2" 	0
scalar scenarioPRJP1.node[0].wlan.mac 	"sentWithoutRetry AC 3" 	0
scalar scenarioPRJP1.node[0].wlan.mac 	"numGivenUp AC 0" 	174
scalar scenarioPRJP1.node[0].wlan.mac 	"numGivenUp AC 1" 	2
scalar scenarioPRJP1.node[0].wlan.mac 	"numGivenUp AC 2" 	0
scalar scenarioPRJP1.node[0].wlan.mac 	"numGivenUp AC 3" 	0
scalar scenarioPRJP1.node[0].wlan.mac 	"numDropped AC 0" 	0
scalar scenarioPRJP1.node[0].wlan.mac 	"numDropped AC 1" 	0
scalar scenarioPRJP1.node[0].wlan.mac 	"numDropped AC 2" 	0
scalar scenarioPRJP1.node[0].wlan.mac 	"numDropped AC 3" 	0
scalar scenarioPRJP1.node[0].wlan.mac 	rcvdPkFromLL:count 	4771
attr interpolationmode  none
attr source  packetReceivedFromLower
attr title  "packets received from lower layer, count"
scalar scenarioPRJP1.node[0].wlan.mac 	rcvdPkFromLL:sum(packetBytes) 	2869568
attr interpolationmode  none
attr source  packetReceivedFromLower
attr title  "packets received from lower layer, sum(packetBytes)"
scalar scenarioPRJP1.node[0].wlan.mac 	sentDownPk:count 	3323
attr interpolationmode  none
attr source  packetSentToLower
attr title  "packets sent to lower layer, count"
scalar scenarioPRJP1.node[0].wlan.mac 	sentDownPk:sum(packetBytes) 	2348078
attr interpolationmode  none
attr source  packetSentToLower
attr title  "packets sent to lower layer, sum(packetBytes)"
scalar scenarioPRJP1.node[0].wlan.mac 	rcvdPkFromHL:count 	1806
attr interpolationmode  none
attr source  packetReceivedFromUpper
attr title  "packets received from higher layer, count"
scalar scenarioPRJP1.node[0].wlan.mac 	rcvdPkFromHL:sum(packetBytes) 	1754236
attr interpolationmode  none
attr source  packetReceivedFromUpper
attr title  "packets received from higher layer, sum(packetBytes)"
scalar scenarioPRJP1.node[0].wlan.mac 	passedUpPk:count 	1915
attr interpolationmode  none
attr source  packetSentToUpper
attr title  "packets passed to higher layer, count"
scalar scenarioPRJP1.node[0].wlan.mac 	passedUpPk:sum(packetBytes) 	1919796
attr interpolationmode  none
attr source  packetSentToUpper
attr title  "packets passed to higher layer, sum(packetBytes)"
statistic scenarioPRJP1.node[0].wlan.radio 	radioChannel:histogram
field count 1
field mean 3
field stddev -nan
field sum 3
field sqrsum 9
field min 3
field max 3
attr interpolationmode  sample-hold
attr source  radioChannelChanged
attr title  "Radio channel, histogram"
bin	-INF	0
bin	2	0
bin	3	1
bin	4	0
scalar scenarioPRJP1.node[0].wlan.radio 	transmissionState:count 	13292
attr interpolationmode  sample-hold
attr source  transmissionStateChanged
attr title  "Radio transmission state, count"
scalar scenarioPRJP1.node[0].wlan.radio 	receptionState:count 	16210
attr interpolationmode  sample-hold
attr source  receptionStateChanged
attr title  "Radio reception state, count"
scalar scenarioPRJP1.node[0].wlan.radio 	radioMode:count 	6648
attr interpolationmode  sample-hold
attr source  radioModeChanged
attr title  "Radio mode, count"
statistic scenarioPRJP1.node[0].wlan.radio 	symbolErrorRate:histogram
field count 0
field mean -nan
field stddev -nan
field sum 0
field sqrsum 0
field min -nan
field max -nan
attr source  symbolErrorRate
attr title  "Symbol error rate, histogram"
bin	-INF	0
bin	-0.5	0
bin	-0.46666666666667	0
bin	-0.43333333333333	0
bin	-0.4	0
bin	-0.36666666666667	0
bin	-0.33333333333333	0
bin	-0.3	0
bin	-0.26666666666667	0
bin	-0.23333333333333	0
bin	-0.2	0
bin	-0.16666666666667	0
bin	-0.13333333333333	0
bin	-0.1	0
bin	-0.066666666666667	0
bin	-0.033333333333333	0
bin	-6.9388939039072e-18	0
bin	0.033333333333333	0
bin	0.066666666666667	0
bin	0.1	0
bin	0.13333333333333	0
bin	0.16666666666667	0
bin	0.2	0
bin	0.23333333333333	0
bin	0.26666666666667	0
bin	0.3	0
bin	0.33333333333333	0
bin	0.36666666666667	0
bin	0.4	0
bin	0.43333333333333	0
bin	0.46666666666667	0
bin	0.5	0
statistic scenarioPRJP1.node[0].wlan.radio 	bitErrorRate:histogram
field count 0
field mean -nan
field stddev -nan
field sum 0
field sqrsum 0
field min -nan
field max -nan
attr source  bitErrorRate
attr title  "Bit error rate, histogram"
bin	-INF	0
bin	-0.5	0
bin	-0.46666666666667	0
bin	-0.43333333333333	0
bin	-0.4	0
bin	-0.36666666666667	0
bin	-0.33333333333333	0
bin	-0.3	0
bin	-0.26666666666667	0
bin	-0.23333333333333	0
bin	-0.2	0
bin	-0.16666666666667	0
bin	-0.13333333333333	0
bin	-0.1	0
bin	-0.066666666666667	0
bin	-0.033333333333333	0
bin	-6.9388939039072e-18	0
bin	0.033333333333333	0
bin	0.066666666666667	0
bin	0.1	0
bin	0.13333333333333	0
bin	0.16666666666667	0
bin	0.2	0
bin	0.23333333333333	0
bin	0.26666666666667	0
bin	0.3	0
bin	0.33333333333333	0
bin	0.36666666666667	0
bin	0.4	0
bin	0.43333333333333	0
bin	0.46666666666667	0
bin	0.5	0
statistic scenarioPRJP1.node[0].wlan.radio 	packetErrorRate:histogram
field count 4771
field mean 0.048033187353267
field stddev 0.20740491929077
field sum 229.16633686244
field sqrsum 216.19772819804
field min 0
field max 1
attr source  packetErrorRate
attr title  "Packet error rate, histogram"
bin	-INF	0
bin	-0.5	0
bin	-0.46666666666667	0
bin	-0.43333333333333	0
bin	-0.4	0
bin	-0.36666666666667	0
bin	-0.33333333333333	0
bin	-0.3	0
bin	-0.26666666666667	0
bin	-0.23333333333333	0
bin	-0.2	0
bin	-0.16666666666667	0
bin	-0.13333333333333	0
bin	-0.1	0
bin	-0.066666666666667	0
bin	-0.033333333333333	0
bin	-6.9388939039072e-18	4483
bin	0.033333333333333	22
bin	0.066666666666667	2
bin	0.1	11
bin	0.13333333333333	2
bin	0.16666666666667	4
bin	0.2	4
bin	0.23333333333333	1
bin	0.26666666666667	5
bin	0.3	3
bin	0.33333333333333	1
bin	0.36666666666667	3
bin	0.4	4
bin	0.43333333333333	4
bin	0.46666666666667	1
bin	0.5	221
statistic scenarioPRJP1.node[0].wlan.radio 	minSNIR:histogram
field count 4771
field mean 17934.998809894
field stddev 99202.070172291
field sum 85567879.322006
field sqrsum 48476471779058
field min 0.015769149083767
field max 753239.71923443
attr source  minSNIR
attr title  "Min SNIR, histogram"
bin	-INF	0
bin	-11092.357190895	0
bin	-9605.2242298518	0
bin	-8118.091268809	0
bin	-6630.9583077662	0
bin	-5143.8253467234	0
bin	-3656.6923856806	0
bin	-2169.5594246378	0
bin	-682.42646359505	3721
bin	804.70649744775	316
bin	2291.8394584905	120
bin	3778.9724195333	104
bin	5266.1053805761	39
bin	6753.2383416189	27
bin	8240.3713026617	24
bin	9727.5042637045	15
bin	11214.637224747	36
bin	12701.77018579	17
bin	14188.903146833	23
bin	15676.036107876	15
bin	17163.169068918	8
bin	18650.302029961	5
bin	20137.434991004	9
bin	21624.567952047	6
bin	23111.70091309	12
bin	24598.833874132	14
bin	26085.966835175	5
bin	27573.099796218	9
bin	29060.232757261	5
bin	30547.365718304	18
bin	32034.498679346	9
bin	33521.631640389	214
scalar scenarioPRJP1.node[0].lo0.lo 	droppedPkBitError:count 	0
attr interpolationmode  none
attr source  dropPkBitError
attr title  "packets dropped/bit error, count"
scalar scenarioPRJP1.node[0].lo0.lo 	droppedPkBitError:sum(packetBytes) 	0
attr interpolationmode  none
attr source  dropPkBitError
attr title  "packets dropped/bit error, sum(packetBytes)"
scalar scenarioPRJP1.node[0].lo0.lo 	rcvdPkFromHL:count 	0
attr interpolationmode  none
attr source  packetReceivedFromUpper
attr title  "packets received from higher layer, count"
scalar scenarioPRJP1.node[0].lo0.lo 	rcvdPkFromHL:sum(packetBytes) 	0
attr interpolationmode  none
attr source  packetReceivedFromUpper
attr title  "packets received from higher layer, sum(packetBytes)"
scalar scenarioPRJP1.node[0].lo0.lo 	passedUpPk:count 	0
attr interpolationmode  none
attr source  packetSentToUpper
attr title  "packets passed to higher layer, count"
scalar scenarioPRJP1.node[0].lo0.lo 	passedUpPk:sum(packetBytes) 	0
attr interpolationmode  none
attr source  packetSentToUpper
attr title  "packets passed to higher layer, sum(packetBytes)"
scalar scenarioPRJP1.node[13].app 	"Total sent" 	2615
scalar scenarioPRJP1.node[13].app 	"Total received" 	136
scalar scenarioPRJP1.node[13].app 	"Total deleted" 	0
scalar scenarioPRJP1.node[13].app 	dropPk:count 	0
attr interpolationmode  none
attr source  dropPk
attr title  "packets dropped, count"
scalar scenarioPRJP1.node[13].app 	dropPk:sum(packetBytes) 	0
attr interpolationmode  none
attr source  dropPk
attr title  "packets dropped, sum(packetBytes)"
scalar scenarioPRJP1.node[13].app 	outOfOrderPk:count 	0
attr interpolationmode  none
attr source  outOfOrderPk
attr title  "packets received out of order, count"
scalar scenarioPRJP1.node[13].app 	outOfOrderPk:sum(packetBytes) 	0
attr interpolationmode  none
attr source  outOfOrderPk
attr title  "packets received out of order, sum(packetBytes)"
scalar scenarioPRJP1.node[13].app 	rcvdPk:count 	136
attr interpolationmode  none
attr source  rcvdPk
attr title  "packets received, count"
scalar scenarioPRJP1.node[13].app 	rcvdPk:sum(packetBytes) 	69632
attr interpolationmode  none
attr source  rcvdPk
attr title  "packets received, sum(packetBytes)"
statistic scenarioPRJP1.node[13].app 	endToEndDelay:histogram
field count 136
field mean 0.010995470331882
field stddev 0.0859035397778
field sum 1.495383965136
field sqrsum 1.0126638997815
field min 0.000945125048
field max 1.002166901076
attr interpolationmode  none
attr source  messageAge(rcvdPk)
attr title  "delay, histogram"
attr unit  s
bin	-INF	0
bin	-0.01658866183	0
bin	-0.0142507884272	0
bin	-0.0119129150244	0
bin	-0.0095750416216	0
bin	-0.0072371682188	0
bin	-0.004899294816	0
bin	-0.0025614214132	0
bin	-0.0002235480104	100
bin	0.0021143253924	16
bin	0.0044521987952	4
bin	0.006790072198	1
bin	0.0091279456008	4
bin	0.0114658190036	2
bin	0.0138036924064	1
bin	0.0161415658092	1
bin	0.018479439212	0
bin	0.0208173126148	0
bin	0.0231551860176	0
bin	0.0254930594204	0
bin	0.0278309328232	1
bin	0.030168806226	1
bin	0.0325066796288	3
bin	0.0348445530316	1
bin	0.0371824264344	0
bin	0.0395202998372	0
bin	0.04185817324	0
bin	0.0441960466428	0
bin	0.0465339200456	0
bin	0.0488717934484	0
bin	0.0512096668512	0
bin	0.053547540254	1
scalar scenarioPRJP1.node[13].app 	sentPk:count 	2615
attr interpolationmode  none
attr source  sentPk
attr title  "packets sent, count"
scalar scenarioPRJP1.node[13].app 	sentPk:sum(packetBytes) 	1338880
attr interpolationmode  none
attr source  sentPk
attr title  "packets sent, sum(packetBytes)"
scalar scenarioPRJP1.node[13].udp 	droppedPkBadChecksum:count 	0
attr interpolationmode  none
attr title  "packets dropped (checksum error), count"
scalar scenarioPRJP1.node[13].udp 	droppedPkWrongPort:count 	0
attr interpolationmode  none
attr title  "packets dropped (wrong port), count"
scalar scenarioPRJP1.node[13].udp 	passedUpPk:count 	136
attr interpolationmode  none
attr title  "packets passed up, count"
scalar scenarioPRJP1.node[13].udp 	rcvdPk:count 	136
attr interpolationmode  none
attr source  rcvdPk
attr title  "packets received, count"
scalar scenarioPRJP1.node[13].udp 	rcvdPk:sum(packetBytes) 	70720
attr interpolationmode  none
attr source  rcvdPk
attr title  "packets received, sum(packetBytes)"
scalar scenarioPRJP1.node[13].udp 	sentPk:count 	2615
attr interpolationmode  none
attr source  sentPk
attr title  "packets sent, count"
scalar scenarioPRJP1.node[13].udp 	sentPk:sum(packetBytes) 	1359800
attr interpolationmode  none
attr source  sentPk
attr title  "packets sent, sum(packetBytes)"
scalar scenarioPRJP1.node[13].networkLayer.arp 	failedARPResolution:count 	8
attr title  "ARP failed resolutions, count"
scalar scenarioPRJP1.node[13].networkLayer.arp 	completedARPResolution:count 	64
attr title  "ARP completed resolutions, count"
scalar scenarioPRJP1.node[13].networkLayer.arp 	initiatedARPResolution:count 	32
attr title  "ARP initiated resolutions, count"
scalar scenarioPRJP1.node[13].networkLayer.arp 	sentReply:count 	15
attr title  "ARP replies sent, count"
scalar scenarioPRJP1.node[13].networkLayer.arp 	sentReq:count 	53
attr title  "ARP request sent, count"
scalar scenarioPRJP1.node[13].mobility 	startTime 	2.5
scalar scenarioPRJP1.node[13].mobility 	totalTime 	947.5
scalar scenarioPRJP1.node[13].mobility 	stopTime 	950
scalar scenarioPRJP1.node[13].mobility 	minSpeed 	2.475891085838e-13
scalar scenarioPRJP1.node[13].mobility 	maxSpeed 	18.855320447044
scalar scenarioPRJP1.node[13].mobility 	totalDistance 	10299.002420402
scalar scenarioPRJP1.node[13].mobility 	totalCO2Emission 	2780.0255336034
scalar scenarioPRJP1.node[13].wlan.mgmt 	dataQueueLen:max 	0
attr interpolationmode  sample-hold
attr title  "data queue length, max"
scalar scenarioPRJP1.node[13].wlan.mgmt 	dataQueueLen:timeavg 	0
attr interpolationmode  sample-hold
attr title  "data queue length, timeavg"
scalar scenarioPRJP1.node[13].wlan.mgmt 	dropPkByQueue:count 	0
attr interpolationmode  none
attr source  dropPkByQueue
attr title  "packets dropped by queue, count"
scalar scenarioPRJP1.node[13].wlan.mgmt 	dropPkByQueue:sum(packetBytes) 	0
attr interpolationmode  none
attr source  dropPkByQueue
attr title  "packets dropped by queue, sum(packetBytes)"
scalar scenarioPRJP1.node[13].wlan.mac 	"number of received packets" 	719
scalar scenarioPRJP1.node[13].wlan.mac 	"number of collisions" 	265
scalar scenarioPRJP1.node[13].wlan.mac 	"number of internal collisions" 	1
scalar scenarioPRJP1.node[13].wlan.mac 	"number of retry for AC 0" 	998
scalar scenarioPRJP1.node[13].wlan.mac 	"number of retry for AC 1" 	36
scalar scenarioPRJP1.node[13].wlan.mac 	"number of retry for AC 2" 	0
scalar scenarioPRJP1.node[13].wlan.mac 	"number of retry for AC 3" 	0
scalar scenarioPRJP1.node[13].wlan.mac 	"sent and received bits" 	14225184
scalar scenarioPRJP1.node[13].wlan.mac 	"sent packet within AC 0" 	165
scalar scenarioPRJP1.node[13].wlan.mac 	"sent packet within AC 1" 	7
scalar scenarioPRJP1.node[13].wlan.mac 	"sent packet within AC 2" 	0
scalar scenarioPRJP1.node[13].wlan.mac 	"sent packet within AC 3" 	0
scalar scenarioPRJP1.node[13].wlan.mac 	"sent in TXOP " 	0
scalar scenarioPRJP1.node[13].wlan.mac 	"sentWithoutRetry AC 0" 	162
scalar scenarioPRJP1.node[13].wlan.mac 	"sentWithoutRetry AC 1" 	7
scalar scenarioPRJP1.node[13].wlan.mac 	"sentWithoutRetry AC 2" 	0
scalar scenarioPRJP1.node[13].wlan.mac 	"sentWithoutRetry AC 3" 	0
scalar scenarioPRJP1.node[13].wlan.mac 	"numGivenUp AC 0" 	165
scalar scenarioPRJP1.node[13].wlan.mac 	"numGivenUp AC 1" 	6
scalar scenarioPRJP1.node[13].wlan.mac 	"numGivenUp AC 2" 	0
scalar scenarioPRJP1.node[13].wlan.mac 	"numGivenUp AC 3" 	0
scalar scenarioPRJP1.node[13].wlan.mac 	"numDropped AC 0" 	0
scalar scenarioPRJP1.node[13].wlan.mac 	"numDropped AC 1" 	0
scalar scenarioPRJP1.node[13].wlan.mac 	"numDropped AC 2" 	0
scalar scenarioPRJP1.node[13].wlan.mac 	"numDropped AC 3" 	0
scalar scenarioPRJP1.node[13].wlan.mac 	rcvdPkFromLL:count 	6066
attr interpolationmode  none
attr source  packetReceivedFromLower
attr title  "packets received from lower layer, count"
scalar scenarioPRJP1.node[13].wlan.mac 	rcvdPkFromLL:sum(packetBytes) 	3553834
attr interpolationmode  none
attr source  packetReceivedFromLower
attr title  "packets received from lower layer, sum(packetBytes)"
scalar scenarioPRJP1.node[13].wlan.mac 	sentDownPk:count 	3728
attr interpolationmode  none
attr source  packetSentToLower
attr title  "packets sent to lower layer, count"
scalar scenarioPRJP1.node[13].wlan.mac 	sentDownPk:sum(packetBytes) 	2422478
attr interpolationmode  none
attr source  packetSentToLower
attr title  "packets sent to lower layer, sum(packetBytes)"
scalar scenarioPRJP1.node[13].wlan.mac 	rcvdPkFromHL:count 	1976
attr interpolationmode  none
attr source  packetReceivedFromUpper
attr title  "packets received from higher layer, count"
scalar scenarioPRJP1.node[13].wlan.mac 	rcvdPkFromHL:sum(packetBytes) 	1868108
attr interpolationmode  none
attr source  packetReceivedFromUpper
attr title  "packets received from higher layer, sum(packetBytes)"
scalar scenarioPRJP1.node[13].wlan.mac 	passedUpPk:count 	2352
attr interpolationmode  none
attr source  packetSentToUpper
attr title  "packets passed to higher layer, count"
scalar scenarioPRJP1.node[13].wlan.mac 	passedUpPk:sum(packetBytes) 	2324388
attr interpolationmode  none
attr source  packetSentToUpper
attr title  "packets passed to higher layer, sum(packetBytes)"
statistic scenarioPRJP1.node[13].wlan.radio 	radioChannel:histogram
field count 1
field mean 3
field stddev -nan
field sum 3
field sqrsum 9
field min 3
field max 3
attr interpolationmode  sample-hold
attr source  radioChannelChanged
attr title  "Radio channel, histogram"
bin	-INF	0
bin	2	0
bin	3	1
bin	4	0
scalar scenarioPRJP1.node[13].wlan.radio 	transmissionState:count 	14912
attr interpolationmode  sample-hold
attr source  transmissionStateChanged
attr title  "Radio transmission state, count"
scalar scenarioPRJP1.node[13].wlan.radio 	receptionState:count 	19609
attr interpolationmode  sample-hold
attr source  receptionStateChanged
attr title  "Radio reception state, count"
scalar scenarioPRJP1.node[13].wlan.radio 	radioMode:count 	7458
attr interpolationmode  sample-hold
attr source  radioModeChanged
attr title  "Radio mode, count"
statistic scenarioPRJP1.node[13].wlan.radio 	symbolErrorRate:histogram
field count 0
field mean -nan
field stddev -nan
field sum 0
field sqrsum 0
field min -nan
field max -nan
attr source  symbolErrorRate
attr title  "Symbol error rate, histogram"
bin	-INF	0
bin	-0.5	0
bin	-0.46666666666667	0
bin	-0.43333333333333	0
bin	-0.4	0
bin	-0.36666666666667	0
bin	-0.33333333333333	0
bin	-0.3	0
bin	-0.26666666666667	0
bin	-0.23333333333333	0
bin	-0.2	0
bin	-0.16666666666667	0
bin	-0.13333333333333	0
bin	-0.1	0
bin	-0.066666666666667	0
bin	-0.033333333333333	0
bin	-6.9388939039072e-18	0
bin	0.033333333333333	0
bin	0.066666666666667	0
bin	0.1	0
bin	0.13333333333333	0
bin	0.16666666666667	0
bin	0.2	0
bin	0.23333333333333	0
bin	0.26666666666667	0
bin	0.3	0
bin	0.33333333333333	0
bin	0.36666666666667	0
bin	0.4	0
bin	0.43333333333333	0
bin	0.46666666666667	0
bin	0.5	0
statistic scenarioPRJP1.node[13].wlan.radio 	bitErrorRate:histogram
field count 0
field mean -nan
field stddev -nan
field sum 0
field sqrsum 0
field min -nan
field max -nan
attr source  bitErrorRate
attr title  "Bit error rate, histogram"
bin	-INF	0
bin	-0.5	0
bin	-0.46666666666667	0
bin	-0.43333333333333	0
bin	-0.4	0
bin	-0.36666666666667	0
bin	-0.33333333333333	0
bin	-0.3	0
bin	-0.26666666666667	0
bin	-0.23333333333333	0
bin	-0.2	0
bin	-0.16666666666667	0
bin	-0.13333333333333	0
bin	-0.1	0
bin	-0.066666666666667	0
bin	-0.033333333333333	0
bin	-6.9388939039072e-18	0
bin	0.033333333333333	0
bin	0.066666666666667	0
bin	0.1	0
bin	0.13333333333333	0
bin	0.16666666666667	0
bin	0.2	0
bin	0.23333333333333	0
bin	0.26666666666667	0
bin	0.3	0
bin	0.33333333333333	0
bin	0.36666666666667	0
bin	0.4	0
bin	0.43333333333333	0
bin	0.46666666666667	0
bin	0.5	0
statistic scenarioPRJP1.node[13].wlan.radio 	packetErrorRate:histogram
field count 6066
field mean 0.041294730319602
field stddev 0.1920071149266
field sum 250.4938341187
field sqrsum 233.94080601313
field min 0
field max 1
attr source  packetErrorRate
attr title  "Packet error rate, histogram"
bin	-INF	0
bin	-0.5	0
bin	-0.46666666666667	0
bin	-0.43333333333333	0
bin	-0.4	0
bin	-0.36666666666667	0
bin	-0.33333333333333	0
bin	-0.3	0
bin	-0.26666666666667	0
bin	-0.23333333333333	0
bin	-0.2	0
bin	-0.16666666666667	0
bin	-0.13333333333333	0
bin	-0.1	0
bin	-0.066666666666667	0
bin	-0.033333333333333	0
bin	-6.9388939039072e-18	5747
bin	0.033333333333333	15
bin	0.066666666666667	15
bin	0.1	9
bin	0.13333333333333	3
bin	0.16666666666667	4
bin	0.2	2
bin	0.23333333333333	4
bin	0.26666666666667	5
bin	0.3	1
bin	0.33333333333333	0
bin	0.36666666666667	7
bin	0.4	3
bin	0.43333333333333	3
bin	0.46666666666667	2
bin	0.5	246
statistic scenarioPRJP1.node[13].wlan.radio 	minSNIR:histogram
field count 6066
field mean 5015.7050028219
field stddev 20402.588380016
field sum 30425266.547118
field sqrsum 2677255102078.1
field min 0.070783048349601
field max 443909.71633148
attr source  minSNIR
attr title  "Min SNIR, histogram"
bin	-INF	0
bin	-14193.108213172	0
bin	-12292.93204989	0
bin	-10392.755886608	0
bin	-8492.5797233253	0
bin	-6592.403560043	0
bin	-4692.2273967606	0
bin	-2792.0512334782	0
bin	-891.87507019584	4662
bin	1008.3010930865	391
bin	2908.4772563689	205
bin	4808.6534196513	112
bin	6708.8295829337	54
bin	8609.005746216	45
bin	10509.181909498	48
bin	12409.358072781	77
bin	14309.534236063	40
bin	16209.710399346	40
bin	18109.886562628	21
bin	20010.06272591	20
bin	21910.238889193	23
bin	23810.415052475	27
bin	25710.591215757	15
bin	27610.76737904	21
bin	29510.943542322	20
bin	31411.119705605	14
bin	33311.295868887	4
bin	35211.472032169	12
bin	37111.648195452	2
bin	39011.824358734	8
bin	40912.000522016	26
bin	42812.176685299	179
scalar scenarioPRJP1.node[13].lo0.lo 	droppedPkBitError:count 	0
attr interpolationmode  none
attr source  dropPkBitError
attr title  "packets dropped/bit error, count"
scalar scenarioPRJP1.node[13].lo0.lo 	droppedPkBitError:sum(packetBytes) 	0
attr interpolationmode  none
attr source  dropPkBitError
attr title  "packets dropped/bit error, sum(packetBytes)"
scalar scenarioPRJP1.node[13].lo0.lo 	rcvdPkFromHL:count 	0
attr interpolationmode  none
attr source  packetReceivedFromUpper
attr title  "packets received from higher layer, count"
scalar scenarioPRJP1.node[13].lo0.lo 	rcvdPkFromHL:sum(packetBytes) 	0
attr interpolationmode  none
attr source  packetReceivedFromUpper
attr title  "packets received from higher layer, sum(packetBytes)"
scalar scenarioPRJP1.node[13].lo0.lo 	passedUpPk:count 	0
attr interpolationmode  none
attr source  packetSentToUpper
attr title  "packets passed to higher layer, count"
scalar scenarioPRJP1.node[13].lo0.lo 	passedUpPk:sum(packetBytes) 	0
attr interpolationmode  none
attr source  packetSentToUpper
attr title  "packets passed to higher layer, sum(packetBytes)"
scalar scenarioPRJP1.node[1].app 	"Total sent" 	2590
scalar scenarioPRJP1.node[1].app 	"Total received" 	175
scalar scenarioPRJP1.node[1].app 	"Total deleted" 	0
scalar scenarioPRJP1.node[1].app 	dropPk:count 	0
attr interpolationmode  none
attr source  dropPk
attr title  "packets dropped, count"
scalar scenarioPRJP1.node[1].app 	dropPk:sum(packetBytes) 	0
attr interpolationmode  none
attr source  dropPk
attr title  "packets dropped, sum(packetBytes)"
scalar scenarioPRJP1.node[1].app 	outOfOrderPk:count 	0
attr interpolationmode  none
attr source  outOfOrderPk
attr title  "packets received out of order, count"
scalar scenarioPRJP1.node[1].app 	outOfOrderPk:sum(packetBytes) 	0
attr interpolationmode  none
attr source  outOfOrderPk
attr title  "packets received out of order, sum(packetBytes)"
scalar scenarioPRJP1.node[1].app 	rcvdPk:count 	175
attr interpolationmode  none
attr source  rcvdPk
attr title  "packets received, count"
scalar scenarioPRJP1.node[1].app 	rcvdPk:sum(packetBytes) 	89600
attr interpolationmode  none
attr source  rcvdPk
attr title  "packets received, sum(packetBytes)"
statistic scenarioPRJP1.node[1].app 	endToEndDelay:histogram
field count 175
field mean 0.0028323489254743
field stddev 0.0063241416572168
field sum 0.495661061958
field sqrsum 0.008362974656131
field min 0.000945022674
field max 0.05211694226
attr interpolationmode  none
attr source  messageAge(rcvdPk)
attr title  "delay, histogram"
attr unit  s
bin	-INF	0
bin	-0.024640937119	0
bin	-0.021229475813267	0
bin	-0.017818014507533	0
bin	-0.0144065532018	0
bin	-0.010995091896067	0
bin	-0.0075836305903333	0
bin	-0.0041721692846	0
bin	-0.00076070797886667	149
bin	0.0026507533268667	13
bin	0.0060622146326	2
bin	0.0094736759383333	3
bin	0.012885137244067	2
bin	0.0162965985498	2
bin	0.019708059855533	1
bin	0.023119521161267	1
bin	0.026530982467	0
bin	0.029942443772733	0
bin	0.033353905078467	0
bin	0.0367653663842	0
bin	0.040176827689933	0
bin	0.043588288995667	0
bin	0.0469997503014	0
bin	0.050411211607133	2
bin	0.053822672912867	0
bin	0.0572341342186	0
bin	0.060645595524333	0
bin	0.064057056830067	0
bin	0.0674685181358	0
bin	0.070879979441533	0
bin	0.074291440747267	0
bin	0.077702902053	0
scalar scenarioPRJP1.node[1].app 	sentPk:count 	2590
attr interpolationmode  none
attr source  sentPk
attr title  "packets sent, count"
scalar scenarioPRJP1.node[1].app 	sentPk:sum(packetBytes) 	1326080
attr interpolationmode  none
attr source  sentPk
attr title  "packets sent, sum(packetBytes)"
scalar scenarioPRJP1.node[1].udp 	droppedPkBadChecksum:count 	0
attr interpolationmode  none
attr title  "packets dropped (checksum error), count"
scalar scenarioPRJP1.node[1].udp 	droppedPkWrongPort:count 	0
attr interpolationmode  none
attr title  "packets dropped (wrong port), count"
scalar scenarioPRJP1.node[1].udp 	passedUpPk:count 	175
attr interpolationmode  none
attr title  "packets passed up, count"
scalar scenarioPRJP1.node[1].udp 	rcvdPk:count 	175
attr interpolationmode  none
attr source  rcvdPk
attr title  "packets received, count"
scalar scenarioPRJP1.node[1].udp 	rcvdPk:sum(packetBytes) 	91000
attr interpolationmode  none
attr source  rcvdPk
attr title  "packets received, sum(packetBytes)"
scalar scenarioPRJP1.node[1].udp 	sentPk:count 	2590
attr interpolationmode  none
attr source  sentPk
attr title  "packets sent, count"
scalar scenarioPRJP1.node[1].udp 	sentPk:sum(packetBytes) 	1346800
attr interpolationmode  none
attr source  sentPk
attr title  "packets sent, sum(packetBytes)"
scalar scenarioPRJP1.node[1].networkLayer.arp 	failedARPResolution:count 	1
attr title  "ARP failed resolutions, count"
scalar scenarioPRJP1.node[1].networkLayer.arp 	completedARPResolution:count 	75
attr title  "ARP completed resolutions, count"
scalar scenarioPRJP1.node[1].networkLayer.arp 	initiatedARPResolution:count 	20
attr title  "ARP initiated resolutions, count"
scalar scenarioPRJP1.node[1].networkLayer.arp 	sentReply:count 	19
attr title  "ARP replies sent, count"
scalar scenarioPRJP1.node[1].networkLayer.arp 	sentReq:count 	24
attr title  "ARP request sent, count"
scalar scenarioPRJP1.node[1].mobility 	startTime 	0.1
scalar scenarioPRJP1.node[1].mobility 	totalTime 	949.9
scalar scenarioPRJP1.node[1].mobility 	stopTime 	950
scalar scenarioPRJP1.node[1].mobility 	minSpeed 	2.4757630004075e-13
scalar scenarioPRJP1.node[1].mobility 	maxSpeed 	19.29955957806
scalar scenarioPRJP1.node[1].mobility 	totalDistance 	11142.632439938
scalar scenarioPRJP1.node[1].mobility 	totalCO2Emission 	2843.362550373
scalar scenarioPRJP1.node[1].wlan.mgmt 	dataQueueLen:max 	0
attr interpolationmode  sample-hold
attr title  "data queue length, max"
scalar scenarioPRJP1.node[1].wlan.mgmt 	dataQueueLen:timeavg 	0
attr interpolationmode  sample-hold
attr title  "data queue length, timeavg"
scalar scenarioPRJP1.node[1].wlan.mgmt 	dropPkByQueue:count 	0
attr interpolationmode  none
attr source  dropPkByQueue
attr title  "packets dropped by queue, count"
scalar scenarioPRJP1.node[1].wlan.mgmt 	dropPkByQueue:sum(packetBytes) 	0
attr interpolationmode  none
attr source  dropPkByQueue
attr title  "packets dropped by queue, sum(packetBytes)"
scalar scenarioPRJP1.node[1].wlan.mac 	"number of received packets" 	916
scalar scenarioPRJP1.node[1].wlan.mac 	"number of collisions" 	240
scalar scenarioPRJP1.node[1].wlan.mac 	"number of internal collisions" 	0
scalar scenarioPRJP1.node[1].wlan.mac 	"number of retry for AC 0" 	1286
scalar scenarioPRJP1.node[1].wlan.mac 	"number of retry for AC 1" 	24
scalar scenarioPRJP1.node[1].wlan.mac 	"number of retry for AC 2" 	0
scalar scenarioPRJP1.node[1].wlan.mac 	"number of retry for AC 3" 	0
scalar scenarioPRJP1.node[1].wlan.mac 	"sent and received bits" 	15606816
scalar scenarioPRJP1.node[1].wlan.mac 	"sent packet within AC 0" 	273
scalar scenarioPRJP1.node[1].wlan.mac 	"sent packet within AC 1" 	6
scalar scenarioPRJP1.node[1].wlan.mac 	"sent packet within AC 2" 	0
scalar scenarioPRJP1.node[1].wlan.mac 	"sent packet within AC 3" 	0
scalar scenarioPRJP1.node[1].wlan.mac 	"sent in TXOP " 	0
scalar scenarioPRJP1.node[1].wlan.mac 	"sentWithoutRetry AC 0" 	265
scalar scenarioPRJP1.node[1].wlan.mac 	"sentWithoutRetry AC 1" 	6
scalar scenarioPRJP1.node[1].wlan.mac 	"sentWithoutRetry AC 2" 	0
scalar scenarioPRJP1.node[1].wlan.mac 	"sentWithoutRetry AC 3" 	0
scalar scenarioPRJP1.node[1].wlan.mac 	"numGivenUp AC 0" 	211
scalar scenarioPRJP1.node[1].wlan.mac 	"numGivenUp AC 1" 	4
scalar scenarioPRJP1.node[1].wlan.mac 	"numGivenUp AC 2" 	0
scalar scenarioPRJP1.node[1].wlan.mac 	"numGivenUp AC 3" 	0
scalar scenarioPRJP1.node[1].wlan.mac 	"numDropped AC 0" 	0
scalar scenarioPRJP1.node[1].wlan.mac 	"numDropped AC 1" 	0
scalar scenarioPRJP1.node[1].wlan.mac 	"numDropped AC 2" 	0
scalar scenarioPRJP1.node[1].wlan.mac 	"numDropped AC 3" 	0
scalar scenarioPRJP1.node[1].wlan.mac 	rcvdPkFromLL:count 	9335
attr interpolationmode  none
attr source  packetReceivedFromLower
attr title  "packets received from lower layer, count"
scalar scenarioPRJP1.node[1].wlan.mac 	rcvdPkFromLL:sum(packetBytes) 	5118948
attr interpolationmode  none
attr source  packetReceivedFromLower
attr title  "packets received from lower layer, sum(packetBytes)"
scalar scenarioPRJP1.node[1].wlan.mac 	sentDownPk:count 	4433
attr interpolationmode  none
attr source  packetSentToLower
attr title  "packets sent to lower layer, count"
scalar scenarioPRJP1.node[1].wlan.mac 	sentDownPk:sum(packetBytes) 	2790124
attr interpolationmode  none
attr source  packetSentToLower
attr title  "packets sent to lower layer, sum(packetBytes)"
scalar scenarioPRJP1.node[1].wlan.mac 	rcvdPkFromHL:count 	2207
attr interpolationmode  none
attr source  packetReceivedFromUpper
attr title  "packets received from higher layer, count"
scalar scenarioPRJP1.node[1].wlan.mac 	rcvdPkFromHL:sum(packetBytes) 	2067636
attr interpolationmode  none
attr source  packetReceivedFromUpper
attr title  "packets received from higher layer, sum(packetBytes)"
scalar scenarioPRJP1.node[1].wlan.mac 	passedUpPk:count 	3321
attr interpolationmode  none
attr source  packetSentToUpper
attr title  "packets passed to higher layer, count"
scalar scenarioPRJP1.node[1].wlan.mac 	passedUpPk:sum(packetBytes) 	3269120
attr interpolationmode  none
attr source  packetSentToUpper
attr title  "packets passed to higher layer, sum(packetBytes)"
statistic scenarioPRJP1.node[1].wlan.radio 	radioChannel:histogram
field count 1
field mean 3
field stddev -nan
field sum 3
field sqrsum 9
field min 3
field max 3
attr interpolationmode  sample-hold
attr source  radioChannelChanged
attr title  "Radio channel, histogram"
bin	-INF	0
bin	2	0
bin	3	1
bin	4	0
scalar scenarioPRJP1.node[1].wlan.radio 	transmissionState:count 	17732
attr interpolationmode  sample-hold
attr source  transmissionStateChanged
attr title  "Radio transmission state, count"
scalar scenarioPRJP1.node[1].wlan.radio 	receptionState:count 	27572
attr interpolationmode  sample-hold
attr source  receptionStateChanged
attr title  "Radio reception state, count"
scalar scenarioPRJP1.node[1].wlan.radio 	radioMode:count 	8868
attr interpolationmode  sample-hold
attr source  radioModeChanged
attr title  "Radio mode, count"
statistic scenarioPRJP1.node[1].wlan.radio 	symbolErrorRate:histogram
field count 0
field mean -nan
field stddev -nan
field sum 0
field sqrsum 0
field min -nan
field max -nan
attr source  symbolErrorRate
attr title  "Symbol error rate, histogram"
bin	-INF	0
bin	-0.5	0
bin	-0.46666666666667	0
bin	-0.43333333333333	0
bin	-0.4	0
bin	-0.36666666666667	0
bin	-0.33333333333333	0
bin	-0.3	0
bin	-0.26666666666667	0
bin	-0.23333333333333	0
bin	-0.2	0
bin	-0.16666666666667	0
bin	-0.13333333333333	0
bin	-0.1	0
bin	-0.066666666666667	0
bin	-0.033333333333333	0
bin	-6.9388939039072e-18	0
bin	0.033333333333333	0
bin	0.066666666666667	0
bin	0.1	0
bin	0.13333333333333	0
bin	0.16666666666667	0
bin	0.2	0
bin	0.23333333333333	0
bin	0.26666666666667	0
bin	0.3	0
bin	0.33333333333333	0
bin	0.36666666666667	0
bin	0.4	0
bin	0.43333333333333	0
bin	0.46666666666667	0
bin	0.5	0
statistic scenarioPRJP1.node[1].wlan.radio 	bitErrorRate:histogram
field count 0
field mean -nan
field stddev -nan
field sum 0
field sqrsum 0
field min -nan
field max -nan
attr source  bitErrorRate
attr title  "Bit error rate, histogram"
bin	-INF	0
bin	-0.5	0
bin	-0.46666666666667	0
bin	-0.43333333333333	0
bin	-0.4	0
bin	-0.36666666666667	0
bin	-0.33333333333333	0
bin	-0.3	0
bin	-0.26666666666667	0
bin	-0.23333333333333	0
bin	-0.2	0
bin	-0.16666666666667	0
bin	-0.13333333333333	0
bin	-0.1	0
bin	-0.066666666666667	0
bin	-0.033333333333333	0
bin	-6.9388939039072e-18	0
bin	0.033333333333333	0
bin	0.066666666666667	0
bin	0.1	0
bin	0.13333333333333	0
bin	0.16666666666667	0
bin	0.2	0
bin	0.23333333333333	0
bin	0.26666666666667	0
bin	0.3	0
bin	0.33333333333333	0
bin	0.36666666666667	0
bin	0.4	0
bin	0.43333333333333	0
bin	0.46666666666667	0
bin	0.5	0
statistic scenarioPRJP1.node[1].wlan.radio 	packetErrorRate:histogram
field count 9335
field mean 0.024075301516311
field stddev 0.14843335093962
field sum 224.74293965476
field sqrsum 211.06173260651
field min 0
field max 1
attr source  packetErrorRate
attr title  "Packet error rate, histogram"
bin	-INF	0
bin	-0.5	0
bin	-0.46666666666667	0
bin	-0.43333333333333	0
bin	-0.4	0
bin	-0.36666666666667	0
bin	-0.33333333333333	0
bin	-0.3	0
bin	-0.26666666666667	0
bin	-0.23333333333333	0
bin	-0.2	0
bin	-0.16666666666667	0
bin	-0.13333333333333	0
bin	-0.1	0
bin	-0.066666666666667	0
bin	-0.033333333333333	0
bin	-6.9388939039072e-18	9049
bin	0.033333333333333	21
bin	0.066666666666667	5
bin	0.1	10
bin	0.13333333333333	5
bin	0.16666666666667	4
bin	0.2	3
bin	0.23333333333333	1
bin	0.26666666666667	1
bin	0.3	4
bin	0.33333333333333	5
bin	0.36666666666667	2
bin	0.4	0
bin	0.43333333333333	0
bin	0.46666666666667	1
bin	0.5	224
statistic scenarioPRJP1.node[1].wlan.radio 	minSNIR:histogram
field count 9335
field mean 27447.860094038
field stddev 114771.42842798
field sum 256225773.97784
field sqrsum 1.2998478482888e+14
field min 0.00073047814193694
field max 753239.71923443
attr source  minSNIR
attr title  "Min SNIR, histogram"
bin	-INF	0
bin	-6456.6350803243	0
bin	-5578.8936847761	0
bin	-4701.1522892279	0
bin	-3823.4108936797	0
bin	-2945.6694981316	0
bin	-2067.9281025834	0
bin	-1190.1867070352	0
bin	-312.445311487	5788
bin	565.29608406119	884
bin	1443.0374796094	295
bin	2320.7788751576	271
bin	3198.5202707057	107
bin	4076.2616662539	83
bin	4954.0030618021	87
bin	5831.7444573503	64
bin	6709.4858528985	56
bin	7587.2272484467	61
bin	8464.9686439949	55
bin	9342.710039543	48
bin	10220.451435091	31
bin	11098.192830639	21
bin	11975.934226188	47
bin	12853.675621736	24
bin	13731.417017284	48
bin	14609.158412832	27
bin	15486.89980838	28
bin	16364.641203929	20
bin	17242.382599477	18
bin	18120.123995025	12
bin	18997.865390573	32
bin	19875.606786121	1228
scalar scenarioPRJP1.node[1].lo0.lo 	droppedPkBitError:count 	0
attr interpolationmode  none
attr source  dropPkBitError
attr title  "packets dropped/bit error, count"
scalar scenarioPRJP1.node[1].lo0.lo 	droppedPkBitError:sum(packetBytes) 	0
attr interpolationmode  none
attr source  dropPkBitError
attr title  "packets dropped/bit error, sum(packetBytes)"
scalar scenarioPRJP1.node[1].lo0.lo 	rcvdPkFromHL:count 	4
attr interpolationmode  none
attr source  packetReceivedFromUpper
attr title  "packets received from higher layer, count"
scalar scenarioPRJP1.node[1].lo0.lo 	rcvdPkFromHL:sum(packetBytes) 	224
attr interpolationmode  none
attr source  packetReceivedFromUpper
attr title  "packets received from higher layer, sum(packetBytes)"
scalar scenarioPRJP1.node[1].lo0.lo 	passedUpPk:count 	4
attr interpolationmode  none
attr source  packetSentToUpper
attr title  "packets passed to higher layer, count"
scalar scenarioPRJP1.node[1].lo0.lo 	passedUpPk:sum(packetBytes) 	224
attr interpolationmode  none
attr source  packetSentToUpper
attr title  "packets passed to higher layer, sum(packetBytes)"
scalar scenarioPRJP1.node[14].app 	"Total sent" 	2615
scalar scenarioPRJP1.node[14].app 	"Total received" 	142
scalar scenarioPRJP1.node[14].app 	"Total deleted" 	0
scalar scenarioPRJP1.node[14].app 	dropPk:count 	0
attr interpolationmode  none
attr source  dropPk
attr title  "packets dropped, count"
scalar scenarioPRJP1.node[14].app 	dropPk:sum(packetBytes) 	0
attr interpolationmode  none
attr source  dropPk
attr title  "packets dropped, sum(packetBytes)"
scalar scenarioPRJP1.node[14].app 	outOfOrderPk:count 	0
attr interpolationmode  none
attr source  outOfOrderPk
attr title  "packets received out of order, count"
scalar scenarioPRJP1.node[14].app 	outOfOrderPk:sum(packetBytes) 	0
attr interpolationmode  none
attr source  outOfOrderPk
attr title  "packets received out of order, sum(packetBytes)"
scalar scenarioPRJP1.node[14].app 	rcvdPk:count 	142
attr interpolationmode  none
attr source  rcvdPk
attr title  "packets received, count"
scalar scenarioPRJP1.node[14].app 	rcvdPk:sum(packetBytes) 	72704
attr interpolationmode  none
attr source  rcvdPk
attr title  "packets received, sum(packetBytes)"
statistic scenarioPRJP1.node[14].app 	endToEndDelay:histogram
field count 142
field mean 0.0019533526665986
field stddev 0.0033680085364178
field sum 0.277376078657
field sqrsum 0.0021412441945903
field min 0.000945023091
field max 0.026272438392
attr interpolationmode  none
attr source  messageAge(rcvdPk)
attr title  "delay, histogram"
attr unit  s
bin	-INF	0
bin	-0.011718681879	0
bin	-0.010030187644733	0
bin	-0.0083416934104667	0
bin	-0.0066531991762	0
bin	-0.0049647049419333	0
bin	-0.0032762107076667	0
bin	-0.0015877164734	0
bin	0.00010077776086667	113
bin	0.0017892719951333	19
bin	0.0034777662294	3
bin	0.0051662604636667	1
bin	0.0068547546979333	1
bin	0.0085432489322	0
bin	0.010231743166467	1
bin	0.011920237400733	0
bin	0.013608731635	0
bin	0.015297225869267	1
bin	0.016985720103533	1
bin	0.0186742143378	1
bin	0.020362708572067	0
bin	0.022051202806333	0
bin	0.0237396970406	0
bin	0.025428191274867	1
bin	0.027116685509133	0
bin	0.0288051797434	0
bin	0.030493673977667	0
bin	0.032182168211933	0
bin	0.0338706624462	0
bin	0.035559156680467	0
bin	0.037247650914733	0
bin	0.038936145149	0
scalar scenarioPRJP1.node[14].app 	sentPk:count 	2615
attr interpolationmode  none
attr source  sentPk
attr title  "packets sent, count"
scalar scenarioPRJP1.node[14].app 	sentPk:sum(packetBytes) 	1338880
attr interpolationmode  none
attr source  sentPk
attr title  "packets sent, sum(packetBytes)"
scalar scenarioPRJP1.node[14].udp 	droppedPkBadChecksum:count 	0
attr interpolationmode  none
attr title  "packets dropped (checksum error), count"
scalar scenarioPRJP1.node[14].udp 	droppedPkWrongPort:count 	0
attr interpolationmode  none
attr title  "packets dropped (wrong port), count"
scalar scenarioPRJP1.node[14].udp 	passedUpPk:count 	142
attr interpolationmode  none
attr title  "packets passed up, count"
scalar scenarioPRJP1.node[14].udp 	rcvdPk:count 	142
attr interpolationmode  none
attr source  rcvdPk
attr title  "packets received, count"
scalar scenarioPRJP1.node[14].udp 	rcvdPk:sum(packetBytes) 	73840
attr interpolationmode  none
attr source  rcvdPk
attr title  "packets received, sum(packetBytes)"
scalar scenarioPRJP1.node[14].udp 	sentPk:count 	2615
attr interpolationmode  none
attr source  sentPk
attr title  "packets sent, count"
scalar scenarioPRJP1.node[14].udp 	sentPk:sum(packetBytes) 	1359800
attr interpolationmode  none
attr source  sentPk
attr title  "packets sent, sum(packetBytes)"
scalar scenarioPRJP1.node[14].networkLayer.arp 	failedARPResolution:count 	0
attr title  "ARP failed resolutions, count"
scalar scenarioPRJP1.node[14].networkLayer.arp 	completedARPResolution:count 	59
attr title  "ARP completed resolutions, count"
scalar scenarioPRJP1.node[14].networkLayer.arp 	initiatedARPResolution:count 	18
attr title  "ARP initiated resolutions, count"
scalar scenarioPRJP1.node[14].networkLayer.arp 	sentReply:count 	12
attr title  "ARP replies sent, count"
scalar scenarioPRJP1.node[14].networkLayer.arp 	sentReq:count 	18
attr title  "ARP request sent, count"
scalar scenarioPRJP1.node[14].mobility 	startTime 	2.5
scalar scenarioPRJP1.node[14].mobility 	totalTime 	947.5
scalar scenarioPRJP1.node[14].mobility 	stopTime 	950
scalar scenarioPRJP1.node[14].mobility 	minSpeed 	2.4761572498399e-13
scalar scenarioPRJP1.node[14].mobility 	maxSpeed 	17.47628913824
scalar scenarioPRJP1.node[14].mobility 	totalDistance 	9622.2565297377
scalar scenarioPRJP1.node[14].mobility 	totalCO2Emission 	2557.2232614134
scalar scenarioPRJP1.node[14].wlan.mgmt 	dataQueueLen:max 	0
attr interpolationmode  sample-hold
attr title  "data queue length, max"
scalar scenarioPRJP1.node[14].wlan.mgmt 	dataQueueLen:timeavg 	0
attr interpolationmode  sample-hold
attr title  "data queue length, timeavg"
scalar scenarioPRJP1.node[14].wlan.mgmt 	dropPkByQueue:count 	0
attr interpolationmode  none
attr source  dropPkByQueue
attr title  "packets dropped by queue, count"
scalar scenarioPRJP1.node[14].wlan.mgmt 	dropPkByQueue:sum(packetBytes) 	0
attr interpolationmode  none
attr source  dropPkByQueue
attr title  "packets dropped by queue, sum(packetBytes)"
scalar scenarioPRJP1.node[14].wlan.mac 	"number of received packets" 	469
scalar scenarioPRJP1.node[14].wlan.mac 	"number of collisions" 	149
scalar scenarioPRJP1.node[14].wlan.mac 	"number of internal collisions" 	0
scalar scenarioPRJP1.node[14].wlan.mac 	"number of retry for AC 0" 	727
scalar scenarioPRJP1.node[14].wlan.mac 	"number of retry for AC 1" 	0
scalar scenarioPRJP1.node[14].wlan.mac 	"number of retry for AC 2" 	0
scalar scenarioPRJP1.node[14].wlan.mac 	"number of retry for AC 3" 	0
scalar scenarioPRJP1.node[14].wlan.mac 	"sent and received bits" 	13370912
scalar scenarioPRJP1.node[14].wlan.mac 	"sent packet within AC 0" 	143
scalar scenarioPRJP1.node[14].wlan.mac 	"sent packet within AC 1" 	3
scalar scenarioPRJP1.node[14].wlan.mac 	"sent packet within AC 2" 	0
scalar scenarioPRJP1.node[14].wlan.mac 	"sent packet within AC 3" 	0
scalar scenarioPRJP1.node[14].wlan.mac 	"sent in TXOP " 	0
scalar scenarioPRJP1.node[14].wlan.mac 	"sentWithoutRetry AC 0" 	142
scalar scenarioPRJP1.node[14].wlan.mac 	"sentWithoutRetry AC 1" 	3
scalar scenarioPRJP1.node[14].wlan.mac 	"sentWithoutRetry AC 2" 	0
scalar scenarioPRJP1.node[14].wlan.mac 	"sentWithoutRetry AC 3" 	0
scalar scenarioPRJP1.node[14].wlan.mac 	"numGivenUp AC 0" 	121
scalar scenarioPRJP1.node[14].wlan.mac 	"numGivenUp AC 1" 	0
scalar scenarioPRJP1.node[14].wlan.mac 	"numGivenUp AC 2" 	0
scalar scenarioPRJP1.node[14].wlan.mac 	"numGivenUp AC 3" 	0
scalar scenarioPRJP1.node[14].wlan.mac 	"numDropped AC 0" 	0
scalar scenarioPRJP1.node[14].wlan.mac 	"numDropped AC 1" 	0
scalar scenarioPRJP1.node[14].wlan.mac 	"numDropped AC 2" 	0
scalar scenarioPRJP1.node[14].wlan.mac 	"numDropped AC 3" 	0
scalar scenarioPRJP1.node[14].wlan.mac 	rcvdPkFromLL:count 	5678
attr interpolationmode  none
attr source  packetReceivedFromLower
attr title  "packets received from lower layer, count"
scalar scenarioPRJP1.node[14].wlan.mac 	rcvdPkFromLL:sum(packetBytes) 	3357374
attr interpolationmode  none
attr source  packetReceivedFromLower
attr title  "packets received from lower layer, sum(packetBytes)"
scalar scenarioPRJP1.node[14].wlan.mac 	sentDownPk:count 	2975
attr interpolationmode  none
attr source  packetSentToLower
attr title  "packets sent to lower layer, count"
scalar scenarioPRJP1.node[14].wlan.mac 	sentDownPk:sum(packetBytes) 	2137706
attr interpolationmode  none
attr source  packetSentToLower
attr title  "packets sent to lower layer, sum(packetBytes)"
scalar scenarioPRJP1.node[14].wlan.mac 	rcvdPkFromHL:count 	1779
attr interpolationmode  none
attr source  packetReceivedFromUpper
attr title  "packets received from higher layer, count"
scalar scenarioPRJP1.node[14].wlan.mac 	rcvdPkFromHL:sum(packetBytes) 	1736964
attr interpolationmode  none
attr source  packetReceivedFromUpper
attr title  "packets received from higher layer, sum(packetBytes)"
scalar scenarioPRJP1.node[14].wlan.mac 	passedUpPk:count 	2354
attr interpolationmode  none
attr source  packetSentToUpper
attr title  "packets passed to higher layer, count"
scalar scenarioPRJP1.node[14].wlan.mac 	passedUpPk:sum(packetBytes) 	2345924
attr interpolationmode  none
attr source  packetSentToUpper
attr title  "packets passed to higher layer, sum(packetBytes)"
statistic scenarioPRJP1.node[14].wlan.radio 	radioChannel:histogram
field count 1
field mean 3
field stddev -nan
field sum 3
field sqrsum 9
field min 3
field max 3
attr interpolationmode  sample-hold
attr source  radioChannelChanged
attr title  "Radio channel, histogram"
bin	-INF	0
bin	2	0
bin	3	1
bin	4	0
scalar scenarioPRJP1.node[14].wlan.radio 	transmissionState:count 	11900
attr interpolationmode  sample-hold
attr source  transmissionStateChanged
attr title  "Radio transmission state, count"
scalar scenarioPRJP1.node[14].wlan.radio 	receptionState:count 	17317
attr interpolationmode  sample-hold
attr source  receptionStateChanged
attr title  "Radio reception state, count"
scalar scenarioPRJP1.node[14].wlan.radio 	radioMode:count 	5952
attr interpolationmode  sample-hold
attr source  radioModeChanged
attr title  "Radio mode, count"
statistic scenarioPRJP1.node[14].wlan.radio 	symbolErrorRate:histogram
field count 0
field mean -nan
field stddev -nan
field sum 0
field sqrsum 0
field min -nan
field max -nan
attr source  symbolErrorRate
attr title  "Symbol error rate, histogram"
bin	-INF	0
bin	-0.5	0
bin	-0.46666666666667	0
bin	-0.43333333333333	0
bin	-0.4	0
bin	-0.36666666666667	0
bin	-0.33333333333333	0
bin	-0.3	0
bin	-0.26666666666667	0
bin	-0.23333333333333	0
bin	-0.2	0
bin	-0.16666666666667	0
bin	-0.13333333333333	0
bin	-0.1	0
bin	-0.066666666666667	0
bin	-0.033333333333333	0
bin	-6.9388939039072e-18	0
bin	0.033333333333333	0
bin	0.066666666666667	0
bin	0.1	0
bin	0.13333333333333	0
bin	0.16666666666667	0
bin	0.2	0
bin	0.23333333333333	0
bin	0.26666666666667	0
bin	0.3	0
bin	0.33333333333333	0
bin	0.36666666666667	0
bin	0.4	0
bin	0.43333333333333	0
bin	0.46666666666667	0
bin	0.5	0
statistic scenarioPRJP1.node[14].wlan.radio 	bitErrorRate:histogram
field count 0
field mean -nan
field stddev -nan
field sum 0
field sqrsum 0
field min -nan
field max -nan
attr source  bitErrorRate
attr title  "Bit error rate, histogram"
bin	-INF	0
bin	-0.5	0
bin	-0.46666666666667	0
bin	-0.43333333333333	0
bin	-0.4	0
bin	-0.36666666666667	0
bin	-0.33333333333333	0
bin	-0.3	0
bin	-0.26666666666667	0
bin	-0.23333333333333	0
bin	-0.2	0
bin	-0.16666666666667	0
bin	-0.13333333333333	0
bin	-0.1	0
bin	-0.066666666666667	0
bin	-0.033333333333333	0
bin	-6.9388939039072e-18	0
bin	0.033333333333333	0
bin	0.066666666666667	0
bin	0.1	0
bin	0.13333333333333	0
bin	0.16666666666667	0
bin	0.2	0
bin	0.23333333333333	0
bin	0.26666666666667	0
bin	0.3	0
bin	0.33333333333333	0
bin	0.36666666666667	0
bin	0.4	0
bin	0.43333333333333	0
bin	0.46666666666667	0
bin	0.5	0
statistic scenarioPRJP1.node[14].wlan.radio 	packetErrorRate:histogram
field count 5678
field mean 0.024316908238551
field stddev 0.1498089508764
field sum 138.07140497849
field sqrsum 130.76480113201
field min 0
field max 1
attr source  packetErrorRate
attr title  "Packet error rate, histogram"
bin	-INF	0
bin	-0.5	0
bin	-0.46666666666667	0
bin	-0.43333333333333	0
bin	-0.4	0
bin	-0.36666666666667	0
bin	-0.33333333333333	0
bin	-0.3	0
bin	-0.26666666666667	0
bin	-0.23333333333333	0
bin	-0.2	0
bin	-0.16666666666667	0
bin	-0.13333333333333	0
bin	-0.1	0
bin	-0.066666666666667	0
bin	-0.033333333333333	0
bin	-6.9388939039072e-18	5512
bin	0.033333333333333	3
bin	0.066666666666667	5
bin	0.1	1
bin	0.13333333333333	5
bin	0.16666666666667	4
bin	0.2	3
bin	0.23333333333333	1
bin	0.26666666666667	3
bin	0.3	1
bin	0.33333333333333	2
bin	0.36666666666667	1
bin	0.4	0
bin	0.43333333333333	1
bin	0.46666666666667	1
bin	0.5	135
statistic scenarioPRJP1.node[14].wlan.radio 	minSNIR:histogram
field count 5678
field mean 49346.926062198
field stddev 148692.470982
field sum 280191846.18116
field sqrsum 1.393419592278e+14
field min 0.00042481365187207
field max 763636.88336566
attr source  minSNIR
attr title  "Min SNIR, histogram"
bin	-INF	0
bin	-19948.585400524	0
bin	-17287.242492961	0
bin	-14625.899585397	0
bin	-11964.556677834	0
bin	-9303.2137702706	0
bin	-6641.8708627072	0
bin	-3980.5279551437	0
bin	-1319.1850475803	3458
bin	1342.1578599831	378
bin	4003.5007675466	153
bin	6664.84367511	178
bin	9326.1865826734	76
bin	11987.529490237	137
bin	14648.8723978	86
bin	17310.215305364	112
bin	19971.558212927	148
bin	22632.901120491	55
bin	25294.244028054	21
bin	27955.586935617	14
bin	30616.929843181	15
bin	33278.272750744	21
bin	35939.615658308	11
bin	38600.958565871	26
bin	41262.301473435	4
bin	43923.644380998	19
bin	46584.987288562	34
bin	49246.330196125	7
bin	51907.673103688	4
bin	54569.016011252	7
bin	57230.358918815	9
bin	59891.701826379	705
scalar scenarioPRJP1.node[14].lo0.lo 	droppedPkBitError:count 	0
attr interpolationmode  none
attr source  dropPkBitError
attr title  "packets dropped/bit error, count"
scalar scenarioPRJP1.node[14].lo0.lo 	droppedPkBitError:sum(packetBytes) 	0
attr interpolationmode  none
attr source  dropPkBitError
attr title  "packets dropped/bit error, sum(packetBytes)"
scalar scenarioPRJP1.node[14].lo0.lo 	rcvdPkFromHL:count 	0
attr interpolationmode  none
attr source  packetReceivedFromUpper
attr title  "packets received from higher layer, count"
scalar scenarioPRJP1.node[14].lo0.lo 	rcvdPkFromHL:sum(packetBytes) 	0
attr interpolationmode  none
attr source  packetReceivedFromUpper
attr title  "packets received from higher layer, sum(packetBytes)"
scalar scenarioPRJP1.node[14].lo0.lo 	passedUpPk:count 	0
attr interpolationmode  none
attr source  packetSentToUpper
attr title  "packets passed to higher layer, count"
scalar scenarioPRJP1.node[14].lo0.lo 	passedUpPk:sum(packetBytes) 	0
attr interpolationmode  none
attr source  packetSentToUpper
attr title  "packets passed to higher layer, sum(packetBytes)"
scalar scenarioPRJP1.node[2].app 	"Total sent" 	2607
scalar scenarioPRJP1.node[2].app 	"Total received" 	243
scalar scenarioPRJP1.node[2].app 	"Total deleted" 	0
scalar scenarioPRJP1.node[2].app 	dropPk:count 	0
attr interpolationmode  none
attr source  dropPk
attr title  "packets dropped, count"
scalar scenarioPRJP1.node[2].app 	dropPk:sum(packetBytes) 	0
attr interpolationmode  none
attr source  dropPk
attr title  "packets dropped, sum(packetBytes)"
scalar scenarioPRJP1.node[2].app 	outOfOrderPk:count 	0
attr interpolationmode  none
attr source  outOfOrderPk
attr title  "packets received out of order, count"
scalar scenarioPRJP1.node[2].app 	outOfOrderPk:sum(packetBytes) 	0
attr interpolationmode  none
attr source  outOfOrderPk
attr title  "packets received out of order, sum(packetBytes)"
scalar scenarioPRJP1.node[2].app 	rcvdPk:count 	243
attr interpolationmode  none
attr source  rcvdPk
attr title  "packets received, count"
scalar scenarioPRJP1.node[2].app 	rcvdPk:sum(packetBytes) 	124416
attr interpolationmode  none
attr source  rcvdPk
attr title  "packets received, sum(packetBytes)"
statistic scenarioPRJP1.node[2].app 	endToEndDelay:histogram
field count 243
field mean 0.008376854304749
field stddev 0.06612688157284
field sum 2.035575596054
field sqrsum 1.0752607210992
field min 0.000945010996
field max 1.026963413598
attr interpolationmode  none
attr source  messageAge(rcvdPk)
attr title  "delay, histogram"
attr unit  s
bin	-INF	0
bin	-0.0185251001	0
bin	-0.0159290852872	0
bin	-0.0133330704744	0
bin	-0.0107370556616	0
bin	-0.0081410408488	0
bin	-0.005545026036	0
bin	-0.0029490112232	0
bin	-0.0003529964104	188
bin	0.0022430184024	19
bin	0.0048390332152	5
bin	0.007435048028	3
bin	0.0100310628408	3
bin	0.0126270776536	2
bin	0.0152230924664	4
bin	0.0178191072792	1
bin	0.020415122092	2
bin	0.0230111369048	2
bin	0.0256071517176	2
bin	0.0282031665304	3
bin	0.0307991813432	4
bin	0.033395196156	0
bin	0.0359912109688	2
bin	0.0385872257816	1
bin	0.0411832405944	0
bin	0.0437792554072	0
bin	0.04637527022	0
bin	0.0489712850328	0
bin	0.0515672998456	0
bin	0.0541633146584	1
bin	0.0567593294712	0
bin	0.059355344284	1
scalar scenarioPRJP1.node[2].app 	sentPk:count 	2607
attr interpolationmode  none
attr source  sentPk
attr title  "packets sent, count"
scalar scenarioPRJP1.node[2].app 	sentPk:sum(packetBytes) 	1334784
attr interpolationmode  none
attr source  sentPk
attr title  "packets sent, sum(packetBytes)"
scalar scenarioPRJP1.node[2].udp 	droppedPkBadChecksum:count 	0
attr interpolationmode  none
attr title  "packets dropped (checksum error), count"
scalar scenarioPRJP1.node[2].udp 	droppedPkWrongPort:count 	0
attr interpolationmode  none
attr title  "packets dropped (wrong port), count"
scalar scenarioPRJP1.node[2].udp 	passedUpPk:count 	243
attr interpolationmode  none
attr title  "packets passed up, count"
scalar scenarioPRJP1.node[2].udp 	rcvdPk:count 	243
attr interpolationmode  none
attr source  rcvdPk
attr title  "packets received, count"
scalar scenarioPRJP1.node[2].udp 	rcvdPk:sum(packetBytes) 	126360
attr interpolationmode  none
attr source  rcvdPk
attr title  "packets received, sum(packetBytes)"
scalar scenarioPRJP1.node[2].udp 	sentPk:count 	2607
attr interpolationmode  none
attr source  sentPk
attr title  "packets sent, count"
scalar scenarioPRJP1.node[2].udp 	sentPk:sum(packetBytes) 	1355640
attr interpolationmode  none
attr source  sentPk
attr title  "packets sent, sum(packetBytes)"
scalar scenarioPRJP1.node[2].networkLayer.arp 	failedARPResolution:count 	1
attr title  "ARP failed resolutions, count"
scalar scenarioPRJP1.node[2].networkLayer.arp 	completedARPResolution:count 	126
attr title  "ARP completed resolutions, count"
scalar scenarioPRJP1.node[2].networkLayer.arp 	initiatedARPResolution:count 	26
attr title  "ARP initiated resolutions, count"
scalar scenarioPRJP1.node[2].networkLayer.arp 	sentReply:count 	22
attr title  "ARP replies sent, count"
scalar scenarioPRJP1.node[2].networkLayer.arp 	sentReq:count 	29
attr title  "ARP request sent, count"
scalar scenarioPRJP1.node[2].mobility 	startTime 	0.1
scalar scenarioPRJP1.node[2].mobility 	totalTime 	949.9
scalar scenarioPRJP1.node[2].mobility 	stopTime 	950
scalar scenarioPRJP1.node[2].mobility 	minSpeed 	2.4756256816817e-13
scalar scenarioPRJP1.node[2].mobility 	maxSpeed 	18.961968309875
scalar scenarioPRJP1.node[2].mobility 	totalDistance 	10384.637716302
scalar scenarioPRJP1.node[2].mobility 	totalCO2Emission 	2948.2052227118
scalar scenarioPRJP1.node[2].wlan.mgmt 	dataQueueLen:max 	0
attr interpolationmode  sample-hold
attr title  "data queue length, max"
scalar scenarioPRJP1.node[2].wlan.mgmt 	dataQueueLen:timeavg 	0
attr interpolationmode  sample-hold
attr title  "data queue length, timeavg"
scalar scenarioPRJP1.node[2].wlan.mgmt 	dropPkByQueue:count 	0
attr interpolationmode  none
attr source  dropPkByQueue
attr title  "packets dropped by queue, count"
scalar scenarioPRJP1.node[2].wlan.mgmt 	dropPkByQueue:sum(packetBytes) 	0
attr interpolationmode  none
attr source  dropPkByQueue
attr title  "packets dropped by queue, sum(packetBytes)"
scalar scenarioPRJP1.node[2].wlan.mac 	"number of received packets" 	1098
scalar scenarioPRJP1.node[2].wlan.mac 	"number of collisions" 	479
scalar scenarioPRJP1.node[2].wlan.mac 	"number of internal collisions" 	0
scalar scenarioPRJP1.node[2].wlan.mac 	"number of retry for AC 0" 	1843
scalar scenarioPRJP1.node[2].wlan.mac 	"number of retry for AC 1" 	54
scalar scenarioPRJP1.node[2].wlan.mac 	"number of retry for AC 2" 	0
scalar scenarioPRJP1.node[2].wlan.mac 	"number of retry for AC 3" 	0
scalar scenarioPRJP1.node[2].wlan.mac 	"sent and received bits" 	16239872
scalar scenarioPRJP1.node[2].wlan.mac 	"sent packet within AC 0" 	224
scalar scenarioPRJP1.node[2].wlan.mac 	"sent packet within AC 1" 	25
scalar scenarioPRJP1.node[2].wlan.mac 	"sent packet within AC 2" 	0
scalar scenarioPRJP1.node[2].wlan.mac 	"sent packet within AC 3" 	0
scalar scenarioPRJP1.node[2].wlan.mac 	"sent in TXOP " 	0
scalar scenarioPRJP1.node[2].wlan.mac 	"sentWithoutRetry AC 0" 	209
scalar scenarioPRJP1.node[2].wlan.mac 	"sentWithoutRetry AC 1" 	25
scalar scenarioPRJP1.node[2].wlan.mac 	"sentWithoutRetry AC 2" 	0
scalar scenarioPRJP1.node[2].wlan.mac 	"sentWithoutRetry AC 3" 	0
scalar scenarioPRJP1.node[2].wlan.mac 	"numGivenUp AC 0" 	303
scalar scenarioPRJP1.node[2].wlan.mac 	"numGivenUp AC 1" 	9
scalar scenarioPRJP1.node[2].wlan.mac 	"numGivenUp AC 2" 	0
scalar scenarioPRJP1.node[2].wlan.mac 	"numGivenUp AC 3" 	0
scalar scenarioPRJP1.node[2].wlan.mac 	"numDropped AC 0" 	0
scalar scenarioPRJP1.node[2].wlan.mac 	"numDropped AC 1" 	0
scalar scenarioPRJP1.node[2].wlan.mac 	"numDropped AC 2" 	0
scalar scenarioPRJP1.node[2].wlan.mac 	"numDropped AC 3" 	0
scalar scenarioPRJP1.node[2].wlan.mac 	rcvdPkFromLL:count 	11695
attr interpolationmode  none
attr source  packetReceivedFromLower
attr title  "packets received from lower layer, count"
scalar scenarioPRJP1.node[2].wlan.mac 	rcvdPkFromLL:sum(packetBytes) 	6595992
attr interpolationmode  none
attr source  packetReceivedFromLower
attr title  "packets received from lower layer, sum(packetBytes)"
scalar scenarioPRJP1.node[2].wlan.mac 	sentDownPk:count 	5372
attr interpolationmode  none
attr source  packetSentToLower
attr title  "packets sent to lower layer, count"
scalar scenarioPRJP1.node[2].wlan.mac 	sentDownPk:sum(packetBytes) 	3232464
attr interpolationmode  none
attr source  packetSentToLower
attr title  "packets sent to lower layer, sum(packetBytes)"
scalar scenarioPRJP1.node[2].wlan.mac 	rcvdPkFromHL:count 	2377
attr interpolationmode  none
attr source  packetReceivedFromUpper
attr title  "packets received from higher layer, count"
scalar scenarioPRJP1.node[2].wlan.mac 	rcvdPkFromHL:sum(packetBytes) 	2197660
attr interpolationmode  none
attr source  packetReceivedFromUpper
attr title  "packets received from higher layer, sum(packetBytes)"
scalar scenarioPRJP1.node[2].wlan.mac 	passedUpPk:count 	4279
attr interpolationmode  none
attr source  packetSentToUpper
attr title  "packets passed to higher layer, count"
scalar scenarioPRJP1.node[2].wlan.mac 	passedUpPk:sum(packetBytes) 	4215472
attr interpolationmode  none
attr source  packetSentToUpper
attr title  "packets passed to higher layer, sum(packetBytes)"
statistic scenarioPRJP1.node[2].wlan.radio 	radioChannel:histogram
field count 1
field mean 3
field stddev -nan
field sum 3
field sqrsum 9
field min 3
field max 3
attr interpolationmode  sample-hold
attr source  radioChannelChanged
attr title  "Radio channel, histogram"
bin	-INF	0
bin	2	0
bin	3	1
bin	4	0
scalar scenarioPRJP1.node[2].wlan.radio 	transmissionState:count 	21488
attr interpolationmode  sample-hold
attr source  transmissionStateChanged
attr title  "Radio transmission state, count"
scalar scenarioPRJP1.node[2].wlan.radio 	receptionState:count 	34199
attr interpolationmode  sample-hold
attr source  receptionStateChanged
attr title  "Radio reception state, count"
scalar scenarioPRJP1.node[2].wlan.radio 	radioMode:count 	10746
attr interpolationmode  sample-hold
attr source  radioModeChanged
attr title  "Radio mode, count"
statistic scenarioPRJP1.node[2].wlan.radio 	symbolErrorRate:histogram
field count 0
field mean -nan
field stddev -nan
field sum 0
field sqrsum 0
field min -nan
field max -nan
attr source  symbolErrorRate
attr title  "Symbol error rate, histogram"
bin	-INF	0
bin	-0.5	0
bin	-0.46666666666667	0
bin	-0.43333333333333	0
bin	-0.4	0
bin	-0.36666666666667	0
bin	-0.33333333333333	0
bin	-0.3	0
bin	-0.26666666666667	0
bin	-0.23333333333333	0
bin	-0.2	0
bin	-0.16666666666667	0
bin	-0.13333333333333	0
bin	-0.1	0
bin	-0.066666666666667	0
bin	-0.033333333333333	0
bin	-6.9388939039072e-18	0
bin	0.033333333333333	0
bin	0.066666666666667	0
bin	0.1	0
bin	0.13333333333333	0
bin	0.16666666666667	0
bin	0.2	0
bin	0.23333333333333	0
bin	0.26666666666667	0
bin	0.3	0
bin	0.33333333333333	0
bin	0.36666666666667	0
bin	0.4	0
bin	0.43333333333333	0
bin	0.46666666666667	0
bin	0.5	0
statistic scenarioPRJP1.node[2].wlan.radio 	bitErrorRate:histogram
field count 0
field mean -nan
field stddev -nan
field sum 0
field sqrsum 0
field min -nan
field max -nan
attr source  bitErrorRate
attr title  "Bit error rate, histogram"
bin	-INF	0
bin	-0.5	0
bin	-0.46666666666667	0
bin	-0.43333333333333	0
bin	-0.4	0
bin	-0.36666666666667	0
bin	-0.33333333333333	0
bin	-0.3	0
bin	-0.26666666666667	0
bin	-0.23333333333333	0
bin	-0.2	0
bin	-0.16666666666667	0
bin	-0.13333333333333	0
bin	-0.1	0
bin	-0.066666666666667	0
bin	-0.033333333333333	0
bin	-6.9388939039072e-18	0
bin	0.033333333333333	0
bin	0.066666666666667	0
bin	0.1	0
bin	0.13333333333333	0
bin	0.16666666666667	0
bin	0.2	0
bin	0.23333333333333	0
bin	0.26666666666667	0
bin	0.3	0
bin	0.33333333333333	0
bin	0.36666666666667	0
bin	0.4	0
bin	0.43333333333333	0
bin	0.46666666666667	0
bin	0.5	0
statistic scenarioPRJP1.node[2].wlan.radio 	packetErrorRate:histogram
field count 11695
field mean 0.039323384762384
field stddev 0.18966745193483
field sum 459.88698479608
field sqrsum 438.76125558081
field min 0
field max 1
attr source  packetErrorRate
attr title  "Packet error rate, histogram"
bin	-INF	0
bin	-1	0
bin	0	11350
bin	1	345
bin	2	0
statistic scenarioPRJP1.node[2].wlan.radio 	minSNIR:histogram
field count 11695
field mean 39078.759769655
field stddev 149399.36062961
field sum 457026095.50611
field sqrsum 2.7887206877247e+14
field min 0.00024087092036214
field max 753239.71923443
attr source  minSNIR
attr title  "Min SNIR, histogram"
bin	-INF	0
bin	-88668.498011117	0
bin	-76845.737855065	0
bin	-65022.977699012	0
bin	-53200.21754296	0
bin	-41377.457386908	0
bin	-29554.697230856	0
bin	-17731.937074804	0
bin	-5909.1769187518	9399
bin	5913.5832373003	575
bin	17736.343393352	615
bin	29559.103549405	86
bin	41381.863705457	59
bin	53204.623861509	38
bin	65027.384017561	36
bin	76850.144173613	45
bin	88672.904329665	27
bin	100495.66448572	17
bin	112318.42464177	32
bin	124141.18479782	24
bin	135963.94495387	104
bin	147786.70510993	16
bin	159609.46526598	9
bin	171432.22542203	53
bin	183254.98557808	12
bin	195077.74573413	2
bin	206900.50589019	5
bin	218723.26604624	1
bin	230546.02620229	0
bin	242368.78635834	2
bin	254191.5465144	17
bin	266014.30667045	521
scalar scenarioPRJP1.node[2].lo0.lo 	droppedPkBitError:count 	0
attr interpolationmode  none
attr source  dropPkBitError
attr title  "packets dropped/bit error, count"
scalar scenarioPRJP1.node[2].lo0.lo 	droppedPkBitError:sum(packetBytes) 	0
attr interpolationmode  none
attr source  dropPkBitError
attr title  "packets dropped/bit error, sum(packetBytes)"
scalar scenarioPRJP1.node[2].lo0.lo 	rcvdPkFromHL:count 	0
attr interpolationmode  none
attr source  packetReceivedFromUpper
attr title  "packets received from higher layer, count"
scalar scenarioPRJP1.node[2].lo0.lo 	rcvdPkFromHL:sum(packetBytes) 	0
attr interpolationmode  none
attr source  packetReceivedFromUpper
attr title  "packets received from higher layer, sum(packetBytes)"
scalar scenarioPRJP1.node[2].lo0.lo 	passedUpPk:count 	0
attr interpolationmode  none
attr source  packetSentToUpper
attr title  "packets passed to higher layer, count"
scalar scenarioPRJP1.node[2].lo0.lo 	passedUpPk:sum(packetBytes) 	0
attr interpolationmode  none
attr source  packetSentToUpper
attr title  "packets passed to higher layer, sum(packetBytes)"
scalar scenarioPRJP1.node[15].app 	"Total sent" 	2615
scalar scenarioPRJP1.node[15].app 	"Total received" 	160
scalar scenarioPRJP1.node[15].app 	"Total deleted" 	0
scalar scenarioPRJP1.node[15].app 	dropPk:count 	0
attr interpolationmode  none
attr source  dropPk
attr title  "packets dropped, count"
scalar scenarioPRJP1.node[15].app 	dropPk:sum(packetBytes) 	0
attr interpolationmode  none
attr source  dropPk
attr title  "packets dropped, sum(packetBytes)"
scalar scenarioPRJP1.node[15].app 	outOfOrderPk:count 	0
attr interpolationmode  none
attr source  outOfOrderPk
attr title  "packets received out of order, count"
scalar scenarioPRJP1.node[15].app 	outOfOrderPk:sum(packetBytes) 	0
attr interpolationmode  none
attr source  outOfOrderPk
attr title  "packets received out of order, sum(packetBytes)"
scalar scenarioPRJP1.node[15].app 	rcvdPk:count 	160
attr interpolationmode  none
attr source  rcvdPk
attr title  "packets received, count"
scalar scenarioPRJP1.node[15].app 	rcvdPk:sum(packetBytes) 	81920
attr interpolationmode  none
attr source  rcvdPk
attr title  "packets received, sum(packetBytes)"
statistic scenarioPRJP1.node[15].app 	endToEndDelay:histogram
field count 160
field mean 0.010511835118469
field stddev 0.079449257456894
field sum 1.681893618955
field sqrsum 1.0213171255711
field min 0.000945011379
field max 1.002529407962
attr interpolationmode  none
attr source  messageAge(rcvdPk)
attr title  "delay, histogram"
attr unit  s
bin	-INF	0
bin	-0.0338047473535	0
bin	-0.029171446189167	0
bin	-0.024538145024833	0
bin	-0.0199048438605	0
bin	-0.015271542696167	0
bin	-0.010638241531833	0
bin	-0.0060049403675	0
bin	-0.0013716392031667	131
bin	0.0032616619611667	10
bin	0.0078949631255	3
bin	0.012528264289833	3
bin	0.017161565454167	2
bin	0.0217948666185	2
bin	0.026428167782833	4
bin	0.031061468947167	2
bin	0.0356947701115	0
bin	0.040328071275833	1
bin	0.044961372440167	0
bin	0.0495946736045	0
bin	0.054227974768833	0
bin	0.058861275933167	0
bin	0.0634945770975	0
bin	0.068127878261833	1
bin	0.072761179426167	0
bin	0.0773944805905	0
bin	0.082027781754833	0
bin	0.086661082919167	0
bin	0.0912943840835	0
bin	0.095927685247833	0
bin	0.10056098641217	0
bin	0.1051942875765	1
scalar scenarioPRJP1.node[15].app 	sentPk:count 	2615
attr interpolationmode  none
attr source  sentPk
attr title  "packets sent, count"
scalar scenarioPRJP1.node[15].app 	sentPk:sum(packetBytes) 	1338880
attr interpolationmode  none
attr source  sentPk
attr title  "packets sent, sum(packetBytes)"
scalar scenarioPRJP1.node[15].udp 	droppedPkBadChecksum:count 	0
attr interpolationmode  none
attr title  "packets dropped (checksum error), count"
scalar scenarioPRJP1.node[15].udp 	droppedPkWrongPort:count 	0
attr interpolationmode  none
attr title  "packets dropped (wrong port), count"
scalar scenarioPRJP1.node[15].udp 	passedUpPk:count 	160
attr interpolationmode  none
attr title  "packets passed up, count"
scalar scenarioPRJP1.node[15].udp 	rcvdPk:count 	160
attr interpolationmode  none
attr source  rcvdPk
attr title  "packets received, count"
scalar scenarioPRJP1.node[15].udp 	rcvdPk:sum(packetBytes) 	83200
attr interpolationmode  none
attr source  rcvdPk
attr title  "packets received, sum(packetBytes)"
scalar scenarioPRJP1.node[15].udp 	sentPk:count 	2615
attr interpolationmode  none
attr source  sentPk
attr title  "packets sent, count"
scalar scenarioPRJP1.node[15].udp 	sentPk:sum(packetBytes) 	1359800
attr interpolationmode  none
attr source  sentPk
attr title  "packets sent, sum(packetBytes)"
scalar scenarioPRJP1.node[15].networkLayer.arp 	failedARPResolution:count 	2
attr title  "ARP failed resolutions, count"
scalar scenarioPRJP1.node[15].networkLayer.arp 	completedARPResolution:count 	68
attr title  "ARP completed resolutions, count"
scalar scenarioPRJP1.node[15].networkLayer.arp 	initiatedARPResolution:count 	27
attr title  "ARP initiated resolutions, count"
scalar scenarioPRJP1.node[15].networkLayer.arp 	sentReply:count 	16
attr title  "ARP replies sent, count"
scalar scenarioPRJP1.node[15].networkLayer.arp 	sentReq:count 	35
attr title  "ARP request sent, count"
scalar scenarioPRJP1.node[15].mobility 	startTime 	2.5
scalar scenarioPRJP1.node[15].mobility 	totalTime 	947.5
scalar scenarioPRJP1.node[15].mobility 	stopTime 	950
scalar scenarioPRJP1.node[15].mobility 	minSpeed 	2.4760215609188e-13
scalar scenarioPRJP1.node[15].mobility 	maxSpeed 	17.686695057328
scalar scenarioPRJP1.node[15].mobility 	totalDistance 	8866.1380553072
scalar scenarioPRJP1.node[15].mobility 	totalCO2Emission 	2487.9490174496
scalar scenarioPRJP1.node[15].wlan.mgmt 	dataQueueLen:max 	0
attr interpolationmode  sample-hold
attr title  "data queue length, max"
scalar scenarioPRJP1.node[15].wlan.mgmt 	dataQueueLen:timeavg 	0
attr interpolationmode  sample-hold
attr title  "data queue length, timeavg"
scalar scenarioPRJP1.node[15].wlan.mgmt 	dropPkByQueue:count 	0
attr interpolationmode  none
attr source  dropPkByQueue
attr title  "packets dropped by queue, count"
scalar scenarioPRJP1.node[15].wlan.mgmt 	dropPkByQueue:sum(packetBytes) 	0
attr interpolationmode  none
attr source  dropPkByQueue
attr title  "packets dropped by queue, sum(packetBytes)"
scalar scenarioPRJP1.node[15].wlan.mac 	"number of received packets" 	829
scalar scenarioPRJP1.node[15].wlan.mac 	"number of collisions" 	372
scalar scenarioPRJP1.node[15].wlan.mac 	"number of internal collisions" 	0
scalar scenarioPRJP1.node[15].wlan.mac 	"number of retry for AC 0" 	1312
scalar scenarioPRJP1.node[15].wlan.mac 	"number of retry for AC 1" 	49
scalar scenarioPRJP1.node[15].wlan.mac 	"number of retry for AC 2" 	0
scalar scenarioPRJP1.node[15].wlan.mac 	"number of retry for AC 3" 	0
scalar scenarioPRJP1.node[15].wlan.mac 	"sent and received bits" 	14358624
scalar scenarioPRJP1.node[15].wlan.mac 	"sent packet within AC 0" 	131
scalar scenarioPRJP1.node[15].wlan.mac 	"sent packet within AC 1" 	14
scalar scenarioPRJP1.node[15].wlan.mac 	"sent packet within AC 2" 	0
scalar scenarioPRJP1.node[15].wlan.mac 	"sent packet within AC 3" 	0
scalar scenarioPRJP1.node[15].wlan.mac 	"sent in TXOP " 	0
scalar scenarioPRJP1.node[15].wlan.mac 	"sentWithoutRetry AC 0" 	124
scalar scenarioPRJP1.node[15].wlan.mac 	"sentWithoutRetry AC 1" 	13
scalar scenarioPRJP1.node[15].wlan.mac 	"sentWithoutRetry AC 2" 	0
scalar scenarioPRJP1.node[15].wlan.mac 	"sentWithoutRetry AC 3" 	0
scalar scenarioPRJP1.node[15].wlan.mac 	"numGivenUp AC 0" 	216
scalar scenarioPRJP1.node[15].wlan.mac 	"numGivenUp AC 1" 	8
scalar scenarioPRJP1.node[15].wlan.mac 	"numGivenUp AC 2" 	0
scalar scenarioPRJP1.node[15].wlan.mac 	"numGivenUp AC 3" 	0
scalar scenarioPRJP1.node[15].wlan.mac 	"numDropped AC 0" 	0
scalar scenarioPRJP1.node[15].wlan.mac 	"numDropped AC 1" 	0
scalar scenarioPRJP1.node[15].wlan.mac 	"numDropped AC 2" 	0
scalar scenarioPRJP1.node[15].wlan.mac 	"numDropped AC 3" 	0
scalar scenarioPRJP1.node[15].wlan.mac 	rcvdPkFromLL:count 	7298
attr interpolationmode  none
attr source  packetReceivedFromLower
attr title  "packets received from lower layer, count"
scalar scenarioPRJP1.node[15].wlan.mac 	rcvdPkFromLL:sum(packetBytes) 	4247988
attr interpolationmode  none
attr source  packetReceivedFromLower
attr title  "packets received from lower layer, sum(packetBytes)"
scalar scenarioPRJP1.node[15].wlan.mac 	sentDownPk:count 	4209
attr interpolationmode  none
attr source  packetSentToLower
attr title  "packets sent to lower layer, count"
scalar scenarioPRJP1.node[15].wlan.mac 	sentDownPk:sum(packetBytes) 	2645214
attr interpolationmode  none
attr source  packetSentToLower
attr title  "packets sent to lower layer, sum(packetBytes)"
scalar scenarioPRJP1.node[15].wlan.mac 	rcvdPkFromHL:count 	2019
attr interpolationmode  none
attr source  packetReceivedFromUpper
attr title  "packets received from higher layer, count"
scalar scenarioPRJP1.node[15].wlan.mac 	rcvdPkFromHL:sum(packetBytes) 	1913324
attr interpolationmode  none
attr source  packetReceivedFromUpper
attr title  "packets received from higher layer, sum(packetBytes)"
scalar scenarioPRJP1.node[15].wlan.mac 	passedUpPk:count 	2749
attr interpolationmode  none
attr source  packetSentToUpper
attr title  "packets passed to higher layer, count"
scalar scenarioPRJP1.node[15].wlan.mac 	passedUpPk:sum(packetBytes) 	2717348
attr interpolationmode  none
attr source  packetSentToUpper
attr title  "packets passed to higher layer, sum(packetBytes)"
statistic scenarioPRJP1.node[15].wlan.radio 	radioChannel:histogram
field count 1
field mean 3
field stddev -nan
field sum 3
field sqrsum 9
field min 3
field max 3
attr interpolationmode  sample-hold
attr source  radioChannelChanged
attr title  "Radio channel, histogram"
bin	-INF	0
bin	2	0
bin	3	1
bin	4	0
scalar scenarioPRJP1.node[15].wlan.radio 	transmissionState:count 	16836
attr interpolationmode  sample-hold
attr source  transmissionStateChanged
attr title  "Radio transmission state, count"
scalar scenarioPRJP1.node[15].wlan.radio 	receptionState:count 	23040
attr interpolationmode  sample-hold
attr source  receptionStateChanged
attr title  "Radio reception state, count"
scalar scenarioPRJP1.node[15].wlan.radio 	radioMode:count 	8420
attr interpolationmode  sample-hold
attr source  radioModeChanged
attr title  "Radio mode, count"
statistic scenarioPRJP1.node[15].wlan.radio 	symbolErrorRate:histogram
field count 0
field mean -nan
field stddev -nan
field sum 0
field sqrsum 0
field min -nan
field max -nan
attr source  symbolErrorRate
[...]
attr interpolationmode  none
attr source  packetReceivedFromUpper
attr title  "packets received from higher layer, sum(packetBytes)"
scalar scenarioPRJP1.node[12].wlan.mac 	passedUpPk:count 	3647
attr interpolationmode  none
attr source  packetSentToUpper
attr title  "packets passed to higher layer, count"
scalar scenarioPRJP1.node[12].wlan.mac 	passedUpPk:sum(packetBytes) 	3571756
attr interpolationmode  none
attr source  packetSentToUpper
attr title  "packets passed to higher layer, sum(packetBytes)"
statistic scenarioPRJP1.node[12].wlan.radio 	radioChannel:histogram
field count 1
field mean 3
field stddev -nan
field sum 3
field sqrsum 9
field min 3
field max 3
attr interpolationmode  sample-hold
attr source  radioChannelChanged
attr title  "Radio channel, histogram"
bin	-INF	0
bin	2	0
bin	3	1
bin	4	0
scalar scenarioPRJP1.node[12].wlan.radio 	transmissionState:count 	17644
attr interpolationmode  sample-hold
attr source  transmissionStateChanged
attr title  "Radio transmission state, count"
scalar scenarioPRJP1.node[12].wlan.radio 	receptionState:count 	29342
attr interpolationmode  sample-hold
attr source  receptionStateChanged
attr title  "Radio reception state, count"
scalar scenarioPRJP1.node[12].wlan.radio 	radioMode:count 	8824
attr interpolationmode  sample-hold
attr source  radioModeChanged
attr title  "Radio mode, count"
statistic scenarioPRJP1.node[12].wlan.radio 	symbolErrorRate:histogram
field count 0
field mean -nan
field stddev -nan
field sum 0
field sqrsum 0
field min -nan
field max -nan
attr source  symbolErrorRate
attr title  "Symbol error rate, histogram"
bin	-INF	0
bin	-0.5	0
bin	-0.46666666666667	0
bin	-0.43333333333333	0
bin	-0.4	0
bin	-0.36666666666667	0
bin	-0.33333333333333	0
bin	-0.3	0
bin	-0.26666666666667	0
bin	-0.23333333333333	0
bin	-0.2	0
bin	-0.16666666666667	0
bin	-0.13333333333333	0
bin	-0.1	0
bin	-0.066666666666667	0
bin	-0.033333333333333	0
bin	-6.9388939039072e-18	0
bin	0.033333333333333	0
bin	0.066666666666667	0
bin	0.1	0
bin	0.13333333333333	0
bin	0.16666666666667	0
bin	0.2	0
bin	0.23333333333333	0
bin	0.26666666666667	0
bin	0.3	0
bin	0.33333333333333	0
bin	0.36666666666667	0
bin	0.4	0
bin	0.43333333333333	0
bin	0.46666666666667	0
bin	0.5	0
statistic scenarioPRJP1.node[12].wlan.radio 	bitErrorRate:histogram
field count 0
field mean -nan
field stddev -nan
field sum 0
field sqrsum 0
field min -nan
field max -nan
attr source  bitErrorRate
attr title  "Bit error rate, histogram"
bin	-INF	0
bin	-0.5	0
bin	-0.46666666666667	0
bin	-0.43333333333333	0
bin	-0.4	0
bin	-0.36666666666667	0
bin	-0.33333333333333	0
bin	-0.3	0
bin	-0.26666666666667	0
bin	-0.23333333333333	0
bin	-0.2	0
bin	-0.16666666666667	0
bin	-0.13333333333333	0
bin	-0.1	0
bin	-0.066666666666667	0
bin	-0.033333333333333	0
bin	-6.9388939039072e-18	0
bin	0.033333333333333	0
bin	0.066666666666667	0
bin	0.1	0
bin	0.13333333333333	0
bin	0.16666666666667	0
bin	0.2	0
bin	0.23333333333333	0
bin	0.26666666666667	0
bin	0.3	0
bin	0.33333333333333	0
bin	0.36666666666667	0
bin	0.4	0
bin	0.43333333333333	0
bin	0.46666666666667	0
bin	0.5	0
statistic scenarioPRJP1.node[12].wlan.radio 	packetErrorRate:histogram
field count 10228
field mean 0.031942650834094
field stddev 0.1723427363462
field sum 326.70943273111
field sqrsum 314.19851130799
field min 0
field max 1
attr source  packetErrorRate
attr title  "Packet error rate, histogram"
bin	-INF	0
bin	-0.5	0
bin	-0.43333333333333	0
bin	-0.36666666666667	0
bin	-0.3	0
bin	-0.23333333333333	0
bin	-0.16666666666667	0
bin	-0.1	0
bin	-0.033333333333333	9850
bin	0.033333333333333	23
bin	0.1	8
bin	0.16666666666667	5
bin	0.23333333333333	9
bin	0.3	2
bin	0.36666666666667	6
bin	0.43333333333333	1
bin	0.5	1
bin	0.56666666666667	5
bin	0.63333333333333	4
bin	0.7	9
bin	0.76666666666667	1
bin	0.83333333333333	4
bin	0.9	4
bin	0.96666666666667	296
bin	1.0333333333333	0
bin	1.1	0
bin	1.1666666666667	0
bin	1.2333333333333	0
bin	1.3	0
bin	1.3666666666667	0
bin	1.4333333333333	0
bin	1.5	0
statistic scenarioPRJP1.node[12].wlan.radio 	minSNIR:histogram
field count 10228
field mean 40561.955070019
field stddev 146783.66823083
field sum 414867676.45615
field sqrsum 2.3717311271925e+14
field min 0.005428861661077
field max 753239.71923443
attr source  minSNIR
attr title  "Min SNIR, histogram"
bin	-INF	0
bin	-376602.4214788	0
bin	-326388.52432159	0
bin	-276174.62716438	0
bin	-225960.73000716	0
bin	-175746.83284995	0
bin	-125532.93569274	0
bin	-75319.03853553	0
bin	-25105.141378318	9010
bin	25108.755778893	349
bin	75322.652936105	107
bin	125536.55009332	40
bin	175750.44725053	269
bin	225964.34440774	10
bin	276178.24156495	7
bin	326392.13872216	14
bin	376606.03587937	11
bin	426819.93303659	11
bin	477033.8301938	20
bin	527247.72735101	1
bin	577461.62450822	0
bin	627675.52166543	0
bin	677889.41882264	9
bin	728103.31597986	370
bin	778317.21313707	0
bin	828531.11029428	0
bin	878745.00745149	0
bin	928958.9046087	0
bin	979172.80176591	0
bin	1029386.6989231	0
bin	1079600.5960803	0
bin	1129814.4932375	0
scalar scenarioPRJP1.node[12].lo0.lo 	droppedPkBitError:count 	0
attr interpolationmode  none
attr source  dropPkBitError
attr title  "packets dropped/bit error, count"
scalar scenarioPRJP1.node[12].lo0.lo 	droppedPkBitError:sum(packetBytes) 	0
attr interpolationmode  none
attr source  dropPkBitError
attr title  "packets dropped/bit error, sum(packetBytes)"
scalar scenarioPRJP1.node[12].lo0.lo 	rcvdPkFromHL:count 	6
attr interpolationmode  none
attr source  packetReceivedFromUpper
attr title  "packets received from higher layer, count"
scalar scenarioPRJP1.node[12].lo0.lo 	rcvdPkFromHL:sum(packetBytes) 	336
attr interpolationmode  none
attr source  packetReceivedFromUpper
attr title  "packets received from higher layer, sum(packetBytes)"
scalar scenarioPRJP1.node[12].lo0.lo 	passedUpPk:count 	6
attr interpolationmode  none
attr source  packetSentToUpper
attr title  "packets passed to higher layer, count"
scalar scenarioPRJP1.node[12].lo0.lo 	passedUpPk:sum(packetBytes) 	336
attr interpolationmode  none
attr source  packetSentToUpper
attr title  "packets passed to higher layer, sum(packetBytes)"
scalar scenarioPRJP1.node[23].app 	"Total sent" 	2625
scalar scenarioPRJP1.node[23].app 	"Total received" 	122
scalar scenarioPRJP1.node[23].app 	"Total deleted" 	0
scalar scenarioPRJP1.node[23].app 	dropPk:count 	0
attr interpolationmode  none
attr source  dropPk
attr title  "packets dropped, count"
scalar scenarioPRJP1.node[23].app 	dropPk:sum(packetBytes) 	0
attr interpolationmode  none
attr source  dropPk
attr title  "packets dropped, sum(packetBytes)"
scalar scenarioPRJP1.node[23].app 	outOfOrderPk:count 	4
attr interpolationmode  none
attr source  outOfOrderPk
attr title  "packets received out of order, count"
scalar scenarioPRJP1.node[23].app 	outOfOrderPk:sum(packetBytes) 	2048
attr interpolationmode  none
attr source  outOfOrderPk
attr title  "packets received out of order, sum(packetBytes)"
scalar scenarioPRJP1.node[23].app 	rcvdPk:count 	122
attr interpolationmode  none
attr source  rcvdPk
attr title  "packets received, count"
scalar scenarioPRJP1.node[23].app 	rcvdPk:sum(packetBytes) 	62464
attr interpolationmode  none
attr source  rcvdPk
attr title  "packets received, sum(packetBytes)"
statistic scenarioPRJP1.node[23].app 	endToEndDelay:histogram
field count 122
field mean 0.010376501921475
field stddev 0.090599237715909
field sum 1.26593323442
field sqrsum 1.0063308054786
field min 0.000945022674
field max 1.002050065614
attr interpolationmode  none
attr source  messageAge(rcvdPk)
attr title  "delay, histogram"
attr unit  s
bin	-INF	0
bin	-0.499607498796	0
bin	-0.4328671626	0
bin	-0.366126826404	0
bin	-0.299386490208	0
bin	-0.232646154012	0
bin	-0.165905817816	0
bin	-0.09916548162	0
bin	-0.032425145424	121
bin	0.034315190772	0
bin	0.101055526968	0
bin	0.167795863164	0
bin	0.23453619936	0
bin	0.301276535556	0
bin	0.368016871752	0
bin	0.434757207948	0
bin	0.501497544144	0
bin	0.56823788034	0
bin	0.634978216536	0
bin	0.701718552732	0
bin	0.768458888928	0
bin	0.835199225124	0
bin	0.90193956132	0
bin	0.968679897516	1
bin	1.035420233712	0
bin	1.102160569908	0
bin	1.168900906104	0
bin	1.2356412423	0
bin	1.302381578496	0
bin	1.369121914692	0
bin	1.435862250888	0
bin	1.502602587084	0
scalar scenarioPRJP1.node[23].app 	sentPk:count 	2625
attr interpolationmode  none
attr source  sentPk
attr title  "packets sent, count"
scalar scenarioPRJP1.node[23].app 	sentPk:sum(packetBytes) 	1344000
attr interpolationmode  none
attr source  sentPk
attr title  "packets sent, sum(packetBytes)"
scalar scenarioPRJP1.node[23].udp 	droppedPkBadChecksum:count 	0
attr interpolationmode  none
attr title  "packets dropped (checksum error), count"
scalar scenarioPRJP1.node[23].udp 	droppedPkWrongPort:count 	0
attr interpolationmode  none
attr title  "packets dropped (wrong port), count"
scalar scenarioPRJP1.node[23].udp 	passedUpPk:count 	126
attr interpolationmode  none
attr title  "packets passed up, count"
scalar scenarioPRJP1.node[23].udp 	rcvdPk:count 	126
attr interpolationmode  none
attr source  rcvdPk
attr title  "packets received, count"
scalar scenarioPRJP1.node[23].udp 	rcvdPk:sum(packetBytes) 	65520
attr interpolationmode  none
attr source  rcvdPk
attr title  "packets received, sum(packetBytes)"
scalar scenarioPRJP1.node[23].udp 	sentPk:count 	2625
attr interpolationmode  none
attr source  sentPk
attr title  "packets sent, count"
scalar scenarioPRJP1.node[23].udp 	sentPk:sum(packetBytes) 	1365000
attr interpolationmode  none
attr source  sentPk
attr title  "packets sent, sum(packetBytes)"
scalar scenarioPRJP1.node[23].networkLayer.arp 	failedARPResolution:count 	0
attr title  "ARP failed resolutions, count"
scalar scenarioPRJP1.node[23].networkLayer.arp 	completedARPResolution:count 	54
attr title  "ARP completed resolutions, count"
scalar scenarioPRJP1.node[23].networkLayer.arp 	initiatedARPResolution:count 	14
attr title  "ARP initiated resolutions, count"
scalar scenarioPRJP1.node[23].networkLayer.arp 	sentReply:count 	16
attr title  "ARP replies sent, count"
scalar scenarioPRJP1.node[23].networkLayer.arp 	sentReq:count 	14
attr title  "ARP request sent, count"
scalar scenarioPRJP1.node[23].mobility 	startTime 	2.5
scalar scenarioPRJP1.node[23].mobility 	totalTime 	947.5
scalar scenarioPRJP1.node[23].mobility 	stopTime 	950
scalar scenarioPRJP1.node[23].mobility 	minSpeed 	2.475537598603e-13
scalar scenarioPRJP1.node[23].mobility 	maxSpeed 	16.507278412667
scalar scenarioPRJP1.node[23].mobility 	totalDistance 	9273.7150586756
scalar scenarioPRJP1.node[23].mobility 	totalCO2Emission 	2369.2149916853
scalar scenarioPRJP1.node[23].wlan.mgmt 	dataQueueLen:max 	0
attr interpolationmode  sample-hold
attr title  "data queue length, max"
scalar scenarioPRJP1.node[23].wlan.mgmt 	dataQueueLen:timeavg 	0
attr interpolationmode  sample-hold
attr title  "data queue length, timeavg"
scalar scenarioPRJP1.node[23].wlan.mgmt 	dropPkByQueue:count 	0
attr interpolationmode  none
attr source  dropPkByQueue
attr title  "packets dropped by queue, count"
scalar scenarioPRJP1.node[23].wlan.mgmt 	dropPkByQueue:sum(packetBytes) 	0
attr interpolationmode  none
attr source  dropPkByQueue
attr title  "packets dropped by queue, sum(packetBytes)"
scalar scenarioPRJP1.node[23].wlan.mac 	"number of received packets" 	494
scalar scenarioPRJP1.node[23].wlan.mac 	"number of collisions" 	196
scalar scenarioPRJP1.node[23].wlan.mac 	"number of internal collisions" 	0
scalar scenarioPRJP1.node[23].wlan.mac 	"number of retry for AC 0" 	968
scalar scenarioPRJP1.node[23].wlan.mac 	"number of retry for AC 1" 	6
scalar scenarioPRJP1.node[23].wlan.mac 	"number of retry for AC 2" 	0
scalar scenarioPRJP1.node[23].wlan.mac 	"number of retry for AC 3" 	0
scalar scenarioPRJP1.node[23].wlan.mac 	"sent and received bits" 	13564064
scalar scenarioPRJP1.node[23].wlan.mac 	"sent packet within AC 0" 	120
scalar scenarioPRJP1.node[23].wlan.mac 	"sent packet within AC 1" 	7
scalar scenarioPRJP1.node[23].wlan.mac 	"sent packet within AC 2" 	0
scalar scenarioPRJP1.node[23].wlan.mac 	"sent packet within AC 3" 	0
scalar scenarioPRJP1.node[23].wlan.mac 	"sent in TXOP " 	0
scalar scenarioPRJP1.node[23].wlan.mac 	"sentWithoutRetry AC 0" 	119
scalar scenarioPRJP1.node[23].wlan.mac 	"sentWithoutRetry AC 1" 	7
scalar scenarioPRJP1.node[23].wlan.mac 	"sentWithoutRetry AC 2" 	0
scalar scenarioPRJP1.node[23].wlan.mac 	"sentWithoutRetry AC 3" 	0
scalar scenarioPRJP1.node[23].wlan.mac 	"numGivenUp AC 0" 	161
scalar scenarioPRJP1.node[23].wlan.mac 	"numGivenUp AC 1" 	1
scalar scenarioPRJP1.node[23].wlan.mac 	"numGivenUp AC 2" 	0
scalar scenarioPRJP1.node[23].wlan.mac 	"numGivenUp AC 3" 	0
scalar scenarioPRJP1.node[23].wlan.mac 	"numDropped AC 0" 	0
scalar scenarioPRJP1.node[23].wlan.mac 	"numDropped AC 1" 	0
scalar scenarioPRJP1.node[23].wlan.mac 	"numDropped AC 2" 	0
scalar scenarioPRJP1.node[23].wlan.mac 	"numDropped AC 3" 	0
scalar scenarioPRJP1.node[23].wlan.mac 	rcvdPkFromLL:count 	5176
attr interpolationmode  none
attr source  packetReceivedFromLower
attr title  "packets received from lower layer, count"
scalar scenarioPRJP1.node[23].wlan.mac 	rcvdPkFromLL:sum(packetBytes) 	3158396
attr interpolationmode  none
attr source  packetReceivedFromLower
attr title  "packets received from lower layer, sum(packetBytes)"
scalar scenarioPRJP1.node[23].wlan.mac 	sentDownPk:count 	3301
attr interpolationmode  none
attr source  packetSentToLower
attr title  "packets sent to lower layer, count"
scalar scenarioPRJP1.node[23].wlan.mac 	sentDownPk:sum(packetBytes) 	2317532
attr interpolationmode  none
attr source  packetSentToLower
attr title  "packets sent to lower layer, sum(packetBytes)"
scalar scenarioPRJP1.node[23].wlan.mac 	rcvdPkFromHL:count 	1833
attr interpolationmode  none
attr source  packetReceivedFromUpper
attr title  "packets received from higher layer, count"
scalar scenarioPRJP1.node[23].wlan.mac 	rcvdPkFromHL:sum(packetBytes) 	1783216
attr interpolationmode  none
attr source  packetReceivedFromUpper
attr title  "packets received from higher layer, sum(packetBytes)"
scalar scenarioPRJP1.node[23].wlan.mac 	passedUpPk:count 	2136
attr interpolationmode  none
attr source  packetSentToUpper
attr title  "packets passed to higher layer, count"
scalar scenarioPRJP1.node[23].wlan.mac 	passedUpPk:sum(packetBytes) 	2129900
attr interpolationmode  none
attr source  packetSentToUpper
attr title  "packets passed to higher layer, sum(packetBytes)"
statistic scenarioPRJP1.node[23].wlan.radio 	radioChannel:histogram
field count 1
field mean 3
field stddev -nan
field sum 3
field sqrsum 9
field min 3
field max 3
attr interpolationmode  sample-hold
attr source  radioChannelChanged
attr title  "Radio channel, histogram"
bin	-INF	0
bin	2	0
bin	3	1
bin	4	0
scalar scenarioPRJP1.node[23].wlan.radio 	transmissionState:count 	13204
attr interpolationmode  sample-hold
attr source  transmissionStateChanged
attr title  "Radio transmission state, count"
scalar scenarioPRJP1.node[23].wlan.radio 	receptionState:count 	16971
attr interpolationmode  sample-hold
attr source  receptionStateChanged
attr title  "Radio reception state, count"
scalar scenarioPRJP1.node[23].wlan.radio 	radioMode:count 	6604
attr interpolationmode  sample-hold
attr source  radioModeChanged
attr title  "Radio mode, count"
statistic scenarioPRJP1.node[23].wlan.radio 	symbolErrorRate:histogram
field count 0
field mean -nan
field stddev -nan
field sum 0
field sqrsum 0
field min -nan
field max -nan
attr source  symbolErrorRate
attr title  "Symbol error rate, histogram"
bin	-INF	0
bin	-0.5	0
bin	-0.46666666666667	0
bin	-0.43333333333333	0
bin	-0.4	0
bin	-0.36666666666667	0
bin	-0.33333333333333	0
bin	-0.3	0
bin	-0.26666666666667	0
bin	-0.23333333333333	0
bin	-0.2	0
bin	-0.16666666666667	0
bin	-0.13333333333333	0
bin	-0.1	0
bin	-0.066666666666667	0
bin	-0.033333333333333	0
bin	-6.9388939039072e-18	0
bin	0.033333333333333	0
bin	0.066666666666667	0
bin	0.1	0
bin	0.13333333333333	0
bin	0.16666666666667	0
bin	0.2	0
bin	0.23333333333333	0
bin	0.26666666666667	0
bin	0.3	0
bin	0.33333333333333	0
bin	0.36666666666667	0
bin	0.4	0
bin	0.43333333333333	0
bin	0.46666666666667	0
bin	0.5	0
statistic scenarioPRJP1.node[23].wlan.radio 	bitErrorRate:histogram
field count 0
field mean -nan
field stddev -nan
field sum 0
field sqrsum 0
field min -nan
field max -nan
attr source  bitErrorRate
attr title  "Bit error rate, histogram"
bin	-INF	0
bin	-0.5	0
bin	-0.46666666666667	0
bin	-0.43333333333333	0
bin	-0.4	0
bin	-0.36666666666667	0
bin	-0.33333333333333	0
bin	-0.3	0
bin	-0.26666666666667	0
bin	-0.23333333333333	0
bin	-0.2	0
bin	-0.16666666666667	0
bin	-0.13333333333333	0
bin	-0.1	0
bin	-0.066666666666667	0
bin	-0.033333333333333	0
bin	-6.9388939039072e-18	0
bin	0.033333333333333	0
bin	0.066666666666667	0
bin	0.1	0
bin	0.13333333333333	0
bin	0.16666666666667	0
bin	0.2	0
bin	0.23333333333333	0
bin	0.26666666666667	0
bin	0.3	0
bin	0.33333333333333	0
bin	0.36666666666667	0
bin	0.4	0
bin	0.43333333333333	0
bin	0.46666666666667	0
bin	0.5	0
statistic scenarioPRJP1.node[23].wlan.radio 	packetErrorRate:histogram
field count 5176
field mean 0.035298500602465
field stddev 0.18123569300118
field sum 182.70503911836
field sqrsum 176.42921189456
field min 0
field max 1
attr source  packetErrorRate
attr title  "Packet error rate, histogram"
bin	-INF	0
bin	-0.5	0
bin	-0.43333333333333	0
bin	-0.36666666666667	0
bin	-0.3	0
bin	-0.23333333333333	0
bin	-0.16666666666667	0
bin	-0.1	0
bin	-0.033333333333333	4967
bin	0.033333333333333	10
bin	0.1	10
bin	0.16666666666667	1
bin	0.23333333333333	0
bin	0.3	4
bin	0.36666666666667	2
bin	0.43333333333333	1
bin	0.5	1
bin	0.56666666666667	2
bin	0.63333333333333	1
bin	0.7	0
bin	0.76666666666667	4
bin	0.83333333333333	4
bin	0.9	7
bin	0.96666666666667	162
bin	1.0333333333333	0
bin	1.1	0
bin	1.1666666666667	0
bin	1.2333333333333	0
bin	1.3	0
bin	1.3666666666667	0
bin	1.4333333333333	0
bin	1.5	0
statistic scenarioPRJP1.node[23].wlan.radio 	minSNIR:histogram
field count 5176
field mean 31497.019168177
field stddev 131908.60870426
field sum 163028571.21448
field sqrsum 95179298467768
field min 0.00026384970179659
field max 753239.71923443
attr source  minSNIR
attr title  "Min SNIR, histogram"
bin	-INF	0
bin	-376575.58786153	0
bin	-326365.26217251	0
bin	-276154.9364835	0
bin	-225944.61079449	0
bin	-175734.28510548	0
bin	-125523.95941647	0
bin	-75313.633727454	0
bin	-25103.308038442	4707
bin	25107.01765057	136
bin	75317.343339582	68
bin	125527.66902859	24
bin	175737.99471761	41
bin	225948.32040662	5
bin	276158.64609563	14
bin	326368.97178464	9
bin	376579.29747365	8
bin	426789.62316267	0
bin	476999.94885168	10
bin	527210.27454069	3
bin	577420.6002297	2
bin	627630.92591871	1
bin	677841.25160772	4
bin	728051.57729674	144
bin	778261.90298575	0
bin	828472.22867476	0
bin	878682.55436377	0
bin	928892.88005278	0
bin	979103.2057418	0
bin	1029313.5314308	0
bin	1079523.8571198	0
bin	1129734.1828088	0
scalar scenarioPRJP1.node[23].lo0.lo 	droppedPkBitError:count 	0
attr interpolationmode  none
attr source  dropPkBitError
attr title  "packets dropped/bit error, count"
scalar scenarioPRJP1.node[23].lo0.lo 	droppedPkBitError:sum(packetBytes) 	0
attr interpolationmode  none
attr source  dropPkBitError
attr title  "packets dropped/bit error, sum(packetBytes)"
scalar scenarioPRJP1.node[23].lo0.lo 	rcvdPkFromHL:count 	0
attr interpolationmode  none
attr source  packetReceivedFromUpper
attr title  "packets received from higher layer, count"
scalar scenarioPRJP1.node[23].lo0.lo 	rcvdPkFromHL:sum(packetBytes) 	0
attr interpolationmode  none
attr source  packetReceivedFromUpper
attr title  "packets received from higher layer, sum(packetBytes)"
scalar scenarioPRJP1.node[23].lo0.lo 	passedUpPk:count 	0
attr interpolationmode  none
attr source  packetSentToUpper
attr title  "packets passed to higher layer, count"
scalar scenarioPRJP1.node[23].lo0.lo 	passedUpPk:sum(packetBytes) 	0
attr interpolationmode  none
attr source  packetSentToUpper
attr title  "packets passed to higher layer, sum(packetBytes)"
