version 2
run DYMOUM-TRG-75n-15-20150804-11:56:59-11638
attr configname DYMOUM-TRG-75n
attr datetime 20150804-11:56:59
attr experiment DYMOUM-TRG-75n
attr inifile omnetpp.ini
attr iterationvars ""
attr iterationvars2 $repetition=15
attr measurement ""
attr network Prj_Part1_propag.scenarioPRJP1
attr processid 11638
attr repetition 15
attr replication #15
attr resultdir results
attr runnumber 15
attr seedset 15

scalar scenarioPRJP1.radioMedium.propagation 	"Arrival computation count" 	186795643
scalar scenarioPRJP1.radioMedium 	"transmission count" 	2524338
scalar scenarioPRJP1.radioMedium 	"radio frame send count" 	186795643
scalar scenarioPRJP1.radioMedium 	"reception computation count" 	185302632
scalar scenarioPRJP1.radioMedium 	"interference computation count" 	475538344
scalar scenarioPRJP1.radioMedium 	"reception decision computation count" 	12007665
scalar scenarioPRJP1.radioMedium 	"listening decision computation count" 	284505251
scalar scenarioPRJP1.radioMedium 	"reception cache hit" 	89.952519556893
attr unit  %
scalar scenarioPRJP1.radioMedium 	"interference cache hit" 	50
attr unit  %
scalar scenarioPRJP1.radioMedium 	"noise cache hit" 	0
attr unit  %
scalar scenarioPRJP1.radioMedium 	"snir cache hit" 	0
attr unit  %
scalar scenarioPRJP1.radioMedium 	"reception decision cache hit" 	0
attr unit  %
scalar scenarioPRJP1.node[0].app 	"Total sent" 	2610
scalar scenarioPRJP1.node[0].app 	"Total received" 	390
scalar scenarioPRJP1.node[0].app 	"Total deleted" 	75
scalar scenarioPRJP1.node[0].app 	dropPk:count 	75
attr interpolationmode  none
attr source  dropPk
attr title  "packets dropped, count"
scalar scenarioPRJP1.node[0].app 	dropPk:sum(packetBytes) 	38400
attr interpolationmode  none
attr source  dropPk
attr title  "packets dropped, sum(packetBytes)"
scalar scenarioPRJP1.node[0].app 	outOfOrderPk:count 	1
attr interpolationmode  none
attr source  outOfOrderPk
attr title  "packets received out of order, count"
scalar scenarioPRJP1.node[0].app 	outOfOrderPk:sum(packetBytes) 	512
attr interpolationmode  none
attr source  outOfOrderPk
attr title  "packets received out of order, sum(packetBytes)"
scalar scenarioPRJP1.node[0].app 	rcvdPk:count 	390
attr interpolationmode  none
attr source  rcvdPk
attr title  "packets received, count"
scalar scenarioPRJP1.node[0].app 	rcvdPk:sum(packetBytes) 	199680
attr interpolationmode  none
attr source  rcvdPk
attr title  "packets received, sum(packetBytes)"
statistic scenarioPRJP1.node[0].app 	endToEndDelay:histogram
field count 390
field mean 4.5757811854651
field stddev 5.8423353139413
field sum 1784.5546623314
field sqrsum 21443.422715415
field min 0.000945126237
field max 19.900479814116
attr interpolationmode  none
attr source  messageAge(rcvdPk)
attr title  "delay, histogram"
attr unit  s
bin	-INF	0
bin	-9.1177454066085	0
bin	-7.9019199805784	0
bin	-6.6860945545484	0
bin	-5.4702691285183	0
bin	-4.2544437024882	0
bin	-3.0386182764582	0
bin	-1.8227928504281	0
bin	-0.60696742439803	182
bin	0.60885800163203	21
bin	1.8246834276621	25
bin	3.0405088536922	19
bin	4.2563342797222	15
bin	5.4721597057523	9
bin	6.6879851317824	18
bin	7.9038105578124	9
bin	9.1196359838425	9
bin	10.335461409873	13
bin	11.551286835903	15
bin	12.767112261933	12
bin	13.982937687963	10
bin	15.198763113993	11
bin	16.414588540023	10
bin	17.630413966053	6
bin	18.846239392083	6
bin	20.062064818113	0
bin	21.277890244143	0
bin	22.493715670173	0
bin	23.709541096203	0
bin	24.925366522233	0
bin	26.141191948263	0
bin	27.357017374293	0
scalar scenarioPRJP1.node[0].app 	sentPk:count 	2610
attr interpolationmode  none
attr source  sentPk
attr title  "packets sent, count"
scalar scenarioPRJP1.node[0].app 	sentPk:sum(packetBytes) 	1336320
attr interpolationmode  none
attr source  sentPk
attr title  "packets sent, sum(packetBytes)"
scalar scenarioPRJP1.node[0].udp 	droppedPkBadChecksum:count 	0
attr interpolationmode  none
attr title  "packets dropped (checksum error), count"
scalar scenarioPRJP1.node[0].udp 	droppedPkWrongPort:count 	0
attr interpolationmode  none
attr title  "packets dropped (wrong port), count"
scalar scenarioPRJP1.node[0].udp 	passedUpPk:count 	466
attr interpolationmode  none
attr title  "packets passed up, count"
scalar scenarioPRJP1.node[0].udp 	rcvdPk:count 	466
attr interpolationmode  none
attr source  rcvdPk
attr title  "packets received, count"
scalar scenarioPRJP1.node[0].udp 	rcvdPk:sum(packetBytes) 	242320
attr interpolationmode  none
attr source  rcvdPk
attr title  "packets received, sum(packetBytes)"
scalar scenarioPRJP1.node[0].udp 	sentPk:count 	2610
attr interpolationmode  none
attr source  sentPk
attr title  "packets sent, count"
scalar scenarioPRJP1.node[0].udp 	sentPk:sum(packetBytes) 	1357200
attr interpolationmode  none
attr source  sentPk
attr title  "packets sent, sum(packetBytes)"
scalar scenarioPRJP1.node[0].networkLayer.arp 	failedARPResolution:count 	9
attr title  "ARP failed resolutions, count"
scalar scenarioPRJP1.node[0].networkLayer.arp 	completedARPResolution:count 	444
attr title  "ARP completed resolutions, count"
scalar scenarioPRJP1.node[0].networkLayer.arp 	initiatedARPResolution:count 	82
attr title  "ARP initiated resolutions, count"
scalar scenarioPRJP1.node[0].networkLayer.arp 	sentReply:count 	44
attr title  "ARP replies sent, count"
scalar scenarioPRJP1.node[0].networkLayer.arp 	sentReq:count 	136
attr title  "ARP request sent, count"
scalar scenarioPRJP1.node[0].manetrouting 	"simulated time" 	950
scalar scenarioPRJP1.node[0].manetrouting 	"Dymo totalSend " 	2267819
scalar scenarioPRJP1.node[0].manetrouting 	"Dymo Rreq send" 	1197382
scalar scenarioPRJP1.node[0].manetrouting 	"Dymo Rreq rec" 	904504
scalar scenarioPRJP1.node[0].manetrouting 	"Dymo Rrep send" 	2772
scalar scenarioPRJP1.node[0].manetrouting 	"Dymo Rrep rec" 	1971
scalar scenarioPRJP1.node[0].manetrouting 	"Dymo Rerr send" 	6603
scalar scenarioPRJP1.node[0].manetrouting 	"Dymo Rerr rec" 	20911
scalar scenarioPRJP1.node[0].mobility 	startTime 	0.1
scalar scenarioPRJP1.node[0].mobility 	totalTime 	949.9
scalar scenarioPRJP1.node[0].mobility 	stopTime 	950
scalar scenarioPRJP1.node[0].mobility 	minSpeed 	2.4793586291239e-13
scalar scenarioPRJP1.node[0].mobility 	maxSpeed 	19.425413197243
scalar scenarioPRJP1.node[0].mobility 	totalDistance 	10791.761775187
scalar scenarioPRJP1.node[0].mobility 	totalCO2Emission 	2875.2362134559
scalar scenarioPRJP1.node[0].wlan.mgmt 	dataQueueLen:max 	41
attr interpolationmode  sample-hold
attr title  "data queue length, max"
scalar scenarioPRJP1.node[0].wlan.mgmt 	dataQueueLen:timeavg 	0
attr interpolationmode  sample-hold
attr title  "data queue length, timeavg"
scalar scenarioPRJP1.node[0].wlan.mgmt 	dropPkByQueue:count 	0
attr interpolationmode  none
attr source  dropPkByQueue
attr title  "packets dropped by queue, count"
scalar scenarioPRJP1.node[0].wlan.mgmt 	dropPkByQueue:sum(packetBytes) 	0
attr interpolationmode  none
attr source  dropPkByQueue
attr title  "packets dropped by queue, sum(packetBytes)"
scalar scenarioPRJP1.node[0].wlan.mac 	"number of received packets" 	5830
scalar scenarioPRJP1.node[0].wlan.mac 	"number of collisions" 	37752
scalar scenarioPRJP1.node[0].wlan.mac 	"number of internal collisions" 	0
scalar scenarioPRJP1.node[0].wlan.mac 	"number of retry for AC 0" 	12179
scalar scenarioPRJP1.node[0].wlan.mac 	"number of retry for AC 1" 	0
scalar scenarioPRJP1.node[0].wlan.mac 	"number of retry for AC 2" 	0
scalar scenarioPRJP1.node[0].wlan.mac 	"number of retry for AC 3" 	0
scalar scenarioPRJP1.node[0].wlan.mac 	"sent and received bits" 	20019000
scalar scenarioPRJP1.node[0].wlan.mac 	"sent packet within AC 0" 	1136
scalar scenarioPRJP1.node[0].wlan.mac 	"sent packet within AC 1" 	0
scalar scenarioPRJP1.node[0].wlan.mac 	"sent packet within AC 2" 	0
scalar scenarioPRJP1.node[0].wlan.mac 	"sent packet within AC 3" 	0
scalar scenarioPRJP1.node[0].wlan.mac 	"sent in TXOP " 	0
scalar scenarioPRJP1.node[0].wlan.mac 	"sentWithoutRetry AC 0" 	912
scalar scenarioPRJP1.node[0].wlan.mac 	"sentWithoutRetry AC 1" 	0
scalar scenarioPRJP1.node[0].wlan.mac 	"sentWithoutRetry AC 2" 	0
scalar scenarioPRJP1.node[0].wlan.mac 	"sentWithoutRetry AC 3" 	0
scalar scenarioPRJP1.node[0].wlan.mac 	"numGivenUp AC 0" 	1943
scalar scenarioPRJP1.node[0].wlan.mac 	"numGivenUp AC 1" 	0
scalar scenarioPRJP1.node[0].wlan.mac 	"numGivenUp AC 2" 	0
scalar scenarioPRJP1.node[0].wlan.mac 	"numGivenUp AC 3" 	0
scalar scenarioPRJP1.node[0].wlan.mac 	"numDropped AC 0" 	0
scalar scenarioPRJP1.node[0].wlan.mac 	"numDropped AC 1" 	0
scalar scenarioPRJP1.node[0].wlan.mac 	"numDropped AC 2" 	0
scalar scenarioPRJP1.node[0].wlan.mac 	"numDropped AC 3" 	0
scalar scenarioPRJP1.node[0].wlan.mac 	rcvdPkFromLL:count 	155332
attr interpolationmode  none
attr source  packetReceivedFromLower
attr title  "packets received from lower layer, count"
scalar scenarioPRJP1.node[0].wlan.mac 	rcvdPkFromLL:sum(packetBytes) 	47029894
attr interpolationmode  none
attr source  packetReceivedFromLower
attr title  "packets received from lower layer, sum(packetBytes)"
scalar scenarioPRJP1.node[0].wlan.mac 	sentDownPk:count 	35085
attr interpolationmode  none
attr source  packetSentToLower
attr title  "packets sent to lower layer, count"
scalar scenarioPRJP1.node[0].wlan.mac 	sentDownPk:sum(packetBytes) 	10513707
attr interpolationmode  none
attr source  packetSentToLower
attr title  "packets sent to lower layer, sum(packetBytes)"
scalar scenarioPRJP1.node[0].wlan.mac 	rcvdPkFromHL:count 	17076
attr interpolationmode  none
attr source  packetReceivedFromUpper
attr title  "packets received from higher layer, count"
scalar scenarioPRJP1.node[0].wlan.mac 	rcvdPkFromHL:sum(packetBytes) 	3593013
attr interpolationmode  none
attr source  packetReceivedFromUpper
attr title  "packets received from higher layer, sum(packetBytes)"
scalar scenarioPRJP1.node[0].wlan.mac 	passedUpPk:count 	48937
attr interpolationmode  none
attr source  packetSentToUpper
attr title  "packets passed to higher layer, count"
scalar scenarioPRJP1.node[0].wlan.mac 	passedUpPk:sum(packetBytes) 	7681966
attr interpolationmode  none
attr source  packetSentToUpper
attr title  "packets passed to higher layer, sum(packetBytes)"
statistic scenarioPRJP1.node[0].wlan.radio 	radioChannel:histogram
field count 1
field mean 3
field stddev -nan
field sum 3
field sqrsum 9
field min 3
field max 3
attr interpolationmode  sample-hold
attr source  radioChannelChanged
attr title  "Radio channel, histogram"
bin	-INF	0
bin	2	0
bin	3	1
bin	4	0
scalar scenarioPRJP1.node[0].wlan.radio 	transmissionState:count 	140340
attr interpolationmode  sample-hold
attr source  transmissionStateChanged
attr title  "Radio transmission state, count"
scalar scenarioPRJP1.node[0].wlan.radio 	receptionState:count 	389028
attr interpolationmode  sample-hold
attr source  receptionStateChanged
attr title  "Radio reception state, count"
scalar scenarioPRJP1.node[0].wlan.radio 	radioMode:count 	70172
attr interpolationmode  sample-hold
attr source  radioModeChanged
attr title  "Radio mode, count"
statistic scenarioPRJP1.node[0].wlan.radio 	symbolErrorRate:histogram
field count 0
field mean -nan
field stddev -nan
field sum 0
field sqrsum 0
field min -nan
field max -nan
attr source  symbolErrorRate
attr title  "Symbol error rate, histogram"
bin	-INF	0
bin	-0.5	0
bin	-0.46666666666667	0
bin	-0.43333333333333	0
bin	-0.4	0
bin	-0.36666666666667	0
bin	-0.33333333333333	0
bin	-0.3	0
bin	-0.26666666666667	0
bin	-0.23333333333333	0
bin	-0.2	0
bin	-0.16666666666667	0
bin	-0.13333333333333	0
bin	-0.1	0
bin	-0.066666666666667	0
bin	-0.033333333333333	0
bin	0	0
bin	0.033333333333333	0
bin	0.066666666666667	0
bin	0.1	0
bin	0.13333333333333	0
bin	0.16666666666667	0
bin	0.2	0
bin	0.23333333333333	0
bin	0.26666666666667	0
bin	0.3	0
bin	0.33333333333333	0
bin	0.36666666666667	0
bin	0.4	0
bin	0.43333333333333	0
bin	0.46666666666667	0
bin	0.5	0
statistic scenarioPRJP1.node[0].wlan.radio 	bitErrorRate:histogram
field count 0
field mean -nan
field stddev -nan
field sum 0
field sqrsum 0
field min -nan
field max -nan
attr source  bitErrorRate
attr title  "Bit error rate, histogram"
bin	-INF	0
bin	-0.5	0
bin	-0.46666666666667	0
bin	-0.43333333333333	0
bin	-0.4	0
bin	-0.36666666666667	0
bin	-0.33333333333333	0
bin	-0.3	0
bin	-0.26666666666667	0
bin	-0.23333333333333	0
bin	-0.2	0
bin	-0.16666666666667	0
bin	-0.13333333333333	0
bin	-0.1	0
bin	-0.066666666666667	0
bin	-0.033333333333333	0
bin	0	0
bin	0.033333333333333	0
bin	0.066666666666667	0
bin	0.1	0
bin	0.13333333333333	0
bin	0.16666666666667	0
bin	0.2	0
bin	0.23333333333333	0
bin	0.26666666666667	0
bin	0.3	0
bin	0.33333333333333	0
bin	0.36666666666667	0
bin	0.4	0
bin	0.43333333333333	0
bin	0.46666666666667	0
bin	0.5	0
statistic scenarioPRJP1.node[0].wlan.radio 	packetErrorRate:histogram
field count 155332
field mean 0.22213673595443
field stddev 0.40670008954559
field sum 34504.943469274
field sqrsum 33357.333798897
field min 0
field max 1
attr source  packetErrorRate
attr title  "Packet error rate, histogram"
bin	-INF	0
bin	-0.11646275524116	0
bin	-0.10093438787567	0
bin	-0.085406020510181	0
bin	-0.069877653144693	0
bin	-0.054349285779206	0
bin	-0.038820918413718	0
bin	-0.023292551048231	0
bin	-0.0077641836827437	113721
bin	0.0077641836827437	1859
bin	0.023292551048231	832
bin	0.038820918413718	581
bin	0.054349285779206	413
bin	0.069877653144693	354
bin	0.085406020510181	290
bin	0.10093438787567	238
bin	0.11646275524116	206
bin	0.13199112260664	202
bin	0.14751948997213	211
bin	0.16304785733762	158
bin	0.1785762247031	157
bin	0.19410459206859	151
bin	0.20963295943408	123
bin	0.22516132679957	142
bin	0.24068969416505	102
bin	0.25621806153054	136
bin	0.27174642889603	109
bin	0.28727479626152	99
bin	0.302803163627	108
bin	0.31833153099249	112
bin	0.33385989835798	89
bin	0.34938826572347	34939
statistic scenarioPRJP1.node[0].wlan.radio 	minSNIR:histogram
field count 155332
field mean 2424.6655989394
field stddev 31120.322783018
field sum 376628156.81445
field sqrsum 1.5134730836013e+14
field min 0.00016740549247659
field max 753239.71923443
attr source  minSNIR
attr title  "Min SNIR, histogram"
bin	-INF	0
bin	-88608.684380043	0
bin	-76793.923845151	0
bin	-64979.163310259	0
bin	-53164.402775367	0
bin	-41349.642240475	0
bin	-29534.881705583	0
bin	-17720.121170691	0
bin	-5905.360635799	149982
bin	5909.399899093	3239
bin	17724.160433985	764
bin	29538.920968877	189
bin	41353.681503769	165
bin	53168.442038661	100
bin	64983.202573553	94
bin	76797.963108445	76
bin	88612.723643337	41
bin	100427.48417823	24
bin	112242.24471312	34
bin	124057.00524801	12
bin	135871.7657829	133
bin	147686.5263178	29
bin	159501.28685269	11
bin	171316.04738758	109
bin	183130.80792247	9
bin	194945.56845736	5
bin	206760.32899226	7
bin	218575.08952715	7
bin	230389.85006204	4
bin	242204.61059693	3
bin	254019.37113182	7
bin	265834.13166672	288
scalar scenarioPRJP1.node[0].lo0.lo 	droppedPkBitError:count 	0
attr interpolationmode  none
attr source  dropPkBitError
attr title  "packets dropped/bit error, count"
scalar scenarioPRJP1.node[0].lo0.lo 	droppedPkBitError:sum(packetBytes) 	0
attr interpolationmode  none
attr source  dropPkBitError
attr title  "packets dropped/bit error, sum(packetBytes)"
scalar scenarioPRJP1.node[0].lo0.lo 	rcvdPkFromHL:count 	0
attr interpolationmode  none
attr source  packetReceivedFromUpper
attr title  "packets received from higher layer, count"
scalar scenarioPRJP1.node[0].lo0.lo 	rcvdPkFromHL:sum(packetBytes) 	0
attr interpolationmode  none
attr source  packetReceivedFromUpper
attr title  "packets received from higher layer, sum(packetBytes)"
scalar scenarioPRJP1.node[0].lo0.lo 	passedUpPk:count 	0
attr interpolationmode  none
attr source  packetSentToUpper
attr title  "packets passed to higher layer, count"
scalar scenarioPRJP1.node[0].lo0.lo 	passedUpPk:sum(packetBytes) 	0
attr interpolationmode  none
attr source  packetSentToUpper
attr title  "packets passed to higher layer, sum(packetBytes)"
scalar scenarioPRJP1.node[21].app 	"Total sent" 	2606
scalar scenarioPRJP1.node[21].app 	"Total received" 	412
scalar scenarioPRJP1.node[21].app 	"Total deleted" 	100
scalar scenarioPRJP1.node[21].app 	dropPk:count 	100
attr interpolationmode  none
attr source  dropPk
attr title  "packets dropped, count"
scalar scenarioPRJP1.node[21].app 	dropPk:sum(packetBytes) 	51200
attr interpolationmode  none
attr source  dropPk
attr title  "packets dropped, sum(packetBytes)"
scalar scenarioPRJP1.node[21].app 	outOfOrderPk:count 	0
attr interpolationmode  none
attr source  outOfOrderPk
attr title  "packets received out of order, count"
scalar scenarioPRJP1.node[21].app 	outOfOrderPk:sum(packetBytes) 	0
attr interpolationmode  none
attr source  outOfOrderPk
attr title  "packets received out of order, sum(packetBytes)"
scalar scenarioPRJP1.node[21].app 	rcvdPk:count 	412
attr interpolationmode  none
attr source  rcvdPk
attr title  "packets received, count"
scalar scenarioPRJP1.node[21].app 	rcvdPk:sum(packetBytes) 	210944
attr interpolationmode  none
attr source  rcvdPk
attr title  "packets received, sum(packetBytes)"
statistic scenarioPRJP1.node[21].app 	endToEndDelay:histogram
field count 412
field mean 4.7555046492086
field stddev 5.9535918803579
field sum 1959.2679154739
field sqrsum 23885.308011283
field min 0.000945093695
field max 19.690897987752
attr interpolationmode  none
attr source  messageAge(rcvdPk)
attr title  "delay, histogram"
attr unit  s
bin	-INF	0
bin	-9.844031248035	0
bin	-8.5313677264445	0
bin	-7.2187042048539	0
bin	-5.9060406832634	0
bin	-4.5933771616729	0
bin	-3.2807136400823	0
bin	-1.9680501184918	0
bin	-0.65538659690127	192
bin	0.65727692468927	28
bin	1.9699404462798	18
bin	3.2826039678703	18
bin	4.5952674894609	19
bin	5.9079310110514	12
bin	7.2205945326419	11
bin	8.5332580542325	16
bin	9.845921575823	21
bin	11.158585097414	18
bin	12.471248619004	12
bin	13.783912140595	15
bin	15.096575662185	5
bin	16.409239183776	7
bin	17.721902705366	13
bin	19.034566226957	7
bin	20.347229748547	0
bin	21.659893270138	0
bin	22.972556791728	0
bin	24.285220313319	0
bin	25.597883834909	0
bin	26.9105473565	0
bin	28.22321087809	0
bin	29.535874399681	0
scalar scenarioPRJP1.node[21].app 	sentPk:count 	2606
attr interpolationmode  none
attr source  sentPk
attr title  "packets sent, count"
scalar scenarioPRJP1.node[21].app 	sentPk:sum(packetBytes) 	1334272
attr interpolationmode  none
attr source  sentPk
attr title  "packets sent, sum(packetBytes)"
scalar scenarioPRJP1.node[21].udp 	droppedPkBadChecksum:count 	0
attr interpolationmode  none
attr title  "packets dropped (checksum error), count"
scalar scenarioPRJP1.node[21].udp 	droppedPkWrongPort:count 	0
attr interpolationmode  none
attr title  "packets dropped (wrong port), count"
scalar scenarioPRJP1.node[21].udp 	passedUpPk:count 	512
attr interpolationmode  none
attr title  "packets passed up, count"
scalar scenarioPRJP1.node[21].udp 	rcvdPk:count 	512
attr interpolationmode  none
attr source  rcvdPk
attr title  "packets received, count"
scalar scenarioPRJP1.node[21].udp 	rcvdPk:sum(packetBytes) 	266240
attr interpolationmode  none
attr source  rcvdPk
attr title  "packets received, sum(packetBytes)"
scalar scenarioPRJP1.node[21].udp 	sentPk:count 	2606
attr interpolationmode  none
attr source  sentPk
attr title  "packets sent, count"
scalar scenarioPRJP1.node[21].udp 	sentPk:sum(packetBytes) 	1355120
attr interpolationmode  none
attr source  sentPk
attr title  "packets sent, sum(packetBytes)"
scalar scenarioPRJP1.node[21].networkLayer.arp 	failedARPResolution:count 	4
attr title  "ARP failed resolutions, count"
scalar scenarioPRJP1.node[21].networkLayer.arp 	completedARPResolution:count 	402
attr title  "ARP completed resolutions, count"
scalar scenarioPRJP1.node[21].networkLayer.arp 	initiatedARPResolution:count 	79
attr title  "ARP initiated resolutions, count"
scalar scenarioPRJP1.node[21].networkLayer.arp 	sentReply:count 	45
attr title  "ARP replies sent, count"
scalar scenarioPRJP1.node[21].networkLayer.arp 	sentReq:count 	122
attr title  "ARP request sent, count"
scalar scenarioPRJP1.node[21].mobility 	startTime 	2.5
scalar scenarioPRJP1.node[21].mobility 	totalTime 	947.5
scalar scenarioPRJP1.node[21].mobility 	stopTime 	950
scalar scenarioPRJP1.node[21].mobility 	minSpeed 	2.4758438901769e-13
scalar scenarioPRJP1.node[21].mobility 	maxSpeed 	20.965849331933
scalar scenarioPRJP1.node[21].mobility 	totalDistance 	11497.913636168
scalar scenarioPRJP1.node[21].mobility 	totalCO2Emission 	3077.8047822248
scalar scenarioPRJP1.node[21].wlan.mgmt 	dataQueueLen:max 	37
attr interpolationmode  sample-hold
attr title  "data queue length, max"
scalar scenarioPRJP1.node[21].wlan.mgmt 	dataQueueLen:timeavg 	0
attr interpolationmode  sample-hold
attr title  "data queue length, timeavg"
scalar scenarioPRJP1.node[21].wlan.mgmt 	dropPkByQueue:count 	0
attr interpolationmode  none
attr source  dropPkByQueue
attr title  "packets dropped by queue, count"
scalar scenarioPRJP1.node[21].wlan.mgmt 	dropPkByQueue:sum(packetBytes) 	0
attr interpolationmode  none
attr source  dropPkByQueue
attr title  "packets dropped by queue, sum(packetBytes)"
scalar scenarioPRJP1.node[21].wlan.mac 	"number of received packets" 	5828
scalar scenarioPRJP1.node[21].wlan.mac 	"number of collisions" 	33092
scalar scenarioPRJP1.node[21].wlan.mac 	"number of internal collisions" 	0
scalar scenarioPRJP1.node[21].wlan.mac 	"number of retry for AC 0" 	12759
scalar scenarioPRJP1.node[21].wlan.mac 	"number of retry for AC 1" 	0
scalar scenarioPRJP1.node[21].wlan.mac 	"number of retry for AC 2" 	0
scalar scenarioPRJP1.node[21].wlan.mac 	"number of retry for AC 3" 	0
scalar scenarioPRJP1.node[21].wlan.mac 	"sent and received bits" 	18537416
scalar scenarioPRJP1.node[21].wlan.mac 	"sent packet within AC 0" 	809
scalar scenarioPRJP1.node[21].wlan.mac 	"sent packet within AC 1" 	0
scalar scenarioPRJP1.node[21].wlan.mac 	"sent packet within AC 2" 	0
scalar scenarioPRJP1.node[21].wlan.mac 	"sent packet within AC 3" 	0
scalar scenarioPRJP1.node[21].wlan.mac 	"sent in TXOP " 	0
scalar scenarioPRJP1.node[21].wlan.mac 	"sentWithoutRetry AC 0" 	676
scalar scenarioPRJP1.node[21].wlan.mac 	"sentWithoutRetry AC 1" 	0
scalar scenarioPRJP1.node[21].wlan.mac 	"sentWithoutRetry AC 2" 	0
scalar scenarioPRJP1.node[21].wlan.mac 	"sentWithoutRetry AC 3" 	0
scalar scenarioPRJP1.node[21].wlan.mac 	"numGivenUp AC 0" 	2073
scalar scenarioPRJP1.node[21].wlan.mac 	"numGivenUp AC 1" 	0
scalar scenarioPRJP1.node[21].wlan.mac 	"numGivenUp AC 2" 	0
scalar scenarioPRJP1.node[21].wlan.mac 	"numGivenUp AC 3" 	0
scalar scenarioPRJP1.node[21].wlan.mac 	"numDropped AC 0" 	2
scalar scenarioPRJP1.node[21].wlan.mac 	"numDropped AC 1" 	0
scalar scenarioPRJP1.node[21].wlan.mac 	"numDropped AC 2" 	0
scalar scenarioPRJP1.node[21].wlan.mac 	"numDropped AC 3" 	0
scalar scenarioPRJP1.node[21].wlan.mac 	rcvdPkFromLL:count 	146854
attr interpolationmode  none
attr source  packetReceivedFromLower
attr title  "packets received from lower layer, count"
scalar scenarioPRJP1.node[21].wlan.mac 	rcvdPkFromLL:sum(packetBytes) 	43500240
attr interpolationmode  none
attr source  packetReceivedFromLower
attr title  "packets received from lower layer, sum(packetBytes)"
scalar scenarioPRJP1.node[21].wlan.mac 	sentDownPk:count 	35466
attr interpolationmode  none
attr source  packetSentToLower
attr title  "packets sent to lower layer, count"
scalar scenarioPRJP1.node[21].wlan.mac 	sentDownPk:sum(packetBytes) 	10725961
attr interpolationmode  none
attr source  packetSentToLower
attr title  "packets sent to lower layer, sum(packetBytes)"
scalar scenarioPRJP1.node[21].wlan.mac 	rcvdPkFromHL:count 	16881
attr interpolationmode  none
attr source  packetReceivedFromUpper
attr title  "packets received from higher layer, count"
scalar scenarioPRJP1.node[21].wlan.mac 	rcvdPkFromHL:sum(packetBytes) 	3481585
attr interpolationmode  none
attr source  packetReceivedFromUpper
attr title  "packets received from higher layer, sum(packetBytes)"
scalar scenarioPRJP1.node[21].wlan.mac 	passedUpPk:count 	48600
attr interpolationmode  none
attr source  packetSentToUpper
attr title  "packets passed to higher layer, count"
scalar scenarioPRJP1.node[21].wlan.mac 	passedUpPk:sum(packetBytes) 	7550413
attr interpolationmode  none
attr source  packetSentToUpper
attr title  "packets passed to higher layer, sum(packetBytes)"
statistic scenarioPRJP1.node[21].wlan.radio 	radioChannel:histogram
field count 1
field mean 3
field stddev -nan
field sum 3
field sqrsum 9
field min 3
field max 3
attr interpolationmode  sample-hold
attr source  radioChannelChanged
attr title  "Radio channel, histogram"
bin	-INF	0
bin	2	0
bin	3	1
bin	4	0
scalar scenarioPRJP1.node[21].wlan.radio 	transmissionState:count 	141862
attr interpolationmode  sample-hold
attr source  transmissionStateChanged
attr title  "Radio transmission state, count"
scalar scenarioPRJP1.node[21].wlan.radio 	receptionState:count 	371124
attr interpolationmode  sample-hold
attr source  receptionStateChanged
attr title  "Radio reception state, count"
scalar scenarioPRJP1.node[21].wlan.radio 	radioMode:count 	70933
attr interpolationmode  sample-hold
attr source  radioModeChanged
attr title  "Radio mode, count"
statistic scenarioPRJP1.node[21].wlan.radio 	symbolErrorRate:histogram
field count 0
field mean -nan
field stddev -nan
field sum 0
field sqrsum 0
field min -nan
field max -nan
attr source  symbolErrorRate
attr title  "Symbol error rate, histogram"
bin	-INF	0
bin	-0.5	0
bin	-0.46666666666667	0
bin	-0.43333333333333	0
bin	-0.4	0
bin	-0.36666666666667	0
bin	-0.33333333333333	0
bin	-0.3	0
bin	-0.26666666666667	0
bin	-0.23333333333333	0
bin	-0.2	0
bin	-0.16666666666667	0
bin	-0.13333333333333	0
bin	-0.1	0
bin	-0.066666666666667	0
bin	-0.033333333333333	0
bin	0	0
bin	0.033333333333333	0
bin	0.066666666666667	0
bin	0.1	0
bin	0.13333333333333	0
bin	0.16666666666667	0
bin	0.2	0
bin	0.23333333333333	0
bin	0.26666666666667	0
bin	0.3	0
bin	0.33333333333333	0
bin	0.36666666666667	0
bin	0.4	0
bin	0.43333333333333	0
bin	0.46666666666667	0
bin	0.5	0
statistic scenarioPRJP1.node[21].wlan.radio 	bitErrorRate:histogram
field count 0
field mean -nan
field stddev -nan
field sum 0
field sqrsum 0
field min -nan
field max -nan
attr source  bitErrorRate
attr title  "Bit error rate, histogram"
bin	-INF	0
bin	-0.5	0
bin	-0.46666666666667	0
bin	-0.43333333333333	0
bin	-0.4	0
bin	-0.36666666666667	0
bin	-0.33333333333333	0
bin	-0.3	0
bin	-0.26666666666667	0
bin	-0.23333333333333	0
bin	-0.2	0
bin	-0.16666666666667	0
bin	-0.13333333333333	0
bin	-0.1	0
bin	-0.066666666666667	0
bin	-0.033333333333333	0
bin	0	0
bin	0.033333333333333	0
bin	0.066666666666667	0
bin	0.1	0
bin	0.13333333333333	0
bin	0.16666666666667	0
bin	0.2	0
bin	0.23333333333333	0
bin	0.26666666666667	0
bin	0.3	0
bin	0.33333333333333	0
bin	0.36666666666667	0
bin	0.4	0
bin	0.43333333333333	0
bin	0.46666666666667	0
bin	0.5	0
statistic scenarioPRJP1.node[21].wlan.radio 	packetErrorRate:histogram
field count 146854
field mean 0.20545163613413
field stddev 0.39438217172614
field sum 30171.394572842
field sqrsum 29039.881110912
field min 0
field max 1
attr source  packetErrorRate
attr title  "Packet error rate, histogram"
bin	-INF	0
bin	-0.5	0
bin	-0.43333333333333	0
bin	-0.36666666666667	0
bin	-0.3	0
bin	-0.23333333333333	0
bin	-0.16666666666667	0
bin	-0.1	0
bin	-0.033333333333333	112070
bin	0.033333333333333	1870
bin	0.1	900
bin	0.16666666666667	629
bin	0.23333333333333	475
bin	0.3	415
bin	0.36666666666667	332
bin	0.43333333333333	349
bin	0.5	304
bin	0.56666666666667	317
bin	0.63333333333333	282
bin	0.7	317
bin	0.76666666666667	323
bin	0.83333333333333	400
bin	0.9	590
bin	0.96666666666667	27281
bin	1.0333333333333	0
bin	1.1	0
bin	1.1666666666667	0
bin	1.2333333333333	0
bin	1.3	0
bin	1.3666666666667	0
bin	1.4333333333333	0
bin	1.5	0
statistic scenarioPRJP1.node[21].wlan.radio 	minSNIR:histogram
field count 146854
field mean 2277.9358087705
field stddev 29085.452706874
field sum 334523985.26119
field sqrsum 1.249943107188e+14
field min 0.00023610200735231
field max 753239.71923443
attr source  minSNIR
attr title  "Min SNIR, histogram"
bin	-INF	0
bin	-51411.695139518	0
bin	-44556.774096111	0
bin	-37701.853052705	0
bin	-30846.932009298	0
bin	-23992.010965891	0
bin	-17137.089922484	0
bin	-10282.168879078	0
bin	-3427.2478356708	139299
bin	3427.673207736	4091
bin	10282.594251143	1103
bin	17137.515294549	753
bin	23992.436337956	214
bin	30847.357381363	177
bin	37702.27842477	143
bin	44557.199468177	149
bin	51412.120511583	76
bin	58267.04155499	83
bin	65121.962598397	71
bin	71976.883641804	59
bin	78831.80468521	32
bin	85686.725728617	38
bin	92541.646772024	32
bin	99396.567815431	24
bin	106251.48885884	21
bin	113106.40990224	25
bin	119961.33094565	26
bin	126816.25198906	20
bin	133671.17303246	7
bin	140526.09407587	13
bin	147381.01511928	10
bin	154235.93616268	388
scalar scenarioPRJP1.node[21].lo0.lo 	droppedPkBitError:count 	0
attr interpolationmode  none
attr source  dropPkBitError
attr title  "packets dropped/bit error, count"
scalar scenarioPRJP1.node[21].lo0.lo 	droppedPkBitError:sum(packetBytes) 	0
attr interpolationmode  none
attr source  dropPkBitError
attr title  "packets dropped/bit error, sum(packetBytes)"
scalar scenarioPRJP1.node[21].lo0.lo 	rcvdPkFromHL:count 	0
attr interpolationmode  none
attr source  packetReceivedFromUpper
attr title  "packets received from higher layer, count"
scalar scenarioPRJP1.node[21].lo0.lo 	rcvdPkFromHL:sum(packetBytes) 	0
attr interpolationmode  none
attr source  packetReceivedFromUpper
attr title  "packets received from higher layer, sum(packetBytes)"
scalar scenarioPRJP1.node[21].lo0.lo 	passedUpPk:count 	0
attr interpolationmode  none
attr source  packetSentToUpper
attr title  "packets passed to higher layer, count"
scalar scenarioPRJP1.node[21].lo0.lo 	passedUpPk:sum(packetBytes) 	0
attr interpolationmode  none
attr source  packetSentToUpper
attr title  "packets passed to higher layer, sum(packetBytes)"
scalar scenarioPRJP1.node[41].app 	"Total sent" 	2599
scalar scenarioPRJP1.node[41].app 	"Total received" 	503
scalar scenarioPRJP1.node[41].app 	"Total deleted" 	62
scalar scenarioPRJP1.node[41].app 	dropPk:count 	62
attr interpolationmode  none
attr source  dropPk
attr title  "packets dropped, count"
scalar scenarioPRJP1.node[41].app 	dropPk:sum(packetBytes) 	31744
attr interpolationmode  none
attr source  dropPk
attr title  "packets dropped, sum(packetBytes)"
scalar scenarioPRJP1.node[41].app 	outOfOrderPk:count 	0
attr interpolationmode  none
attr source  outOfOrderPk
attr title  "packets received out of order, count"
scalar scenarioPRJP1.node[41].app 	outOfOrderPk:sum(packetBytes) 	0
attr interpolationmode  none
attr source  outOfOrderPk
attr title  "packets received out of order, sum(packetBytes)"
scalar scenarioPRJP1.node[41].app 	rcvdPk:count 	503
attr interpolationmode  none
attr source  rcvdPk
attr title  "packets received, count"
scalar scenarioPRJP1.node[41].app 	rcvdPk:sum(packetBytes) 	257536
attr interpolationmode  none
attr source  rcvdPk
attr title  "packets received, sum(packetBytes)"
statistic scenarioPRJP1.node[41].app 	endToEndDelay:histogram
field count 503
field mean 4.632669758754
field stddev 5.8702921059249
field sum 2330.2328886533
field sqrsum 28094.284797378
field min 0.000945064918
field max 19.99804850385
attr interpolationmode  none
attr source  messageAge(rcvdPk)
attr title  "delay, histogram"
attr unit  s
bin	-INF	0
bin	-9.39191348974	0
bin	-8.1395271367081	0
bin	-6.8871407836763	0
bin	-5.6347544306444	0
bin	-4.3823680776125	0
bin	-3.1299817245807	0
bin	-1.8775953715488	0
bin	-0.62520901851693	221
bin	0.62717733451493	47
bin	1.8795636875468	24
bin	3.1319500405787	21
bin	4.3843363936105	22
bin	5.6367227466424	17
bin	6.8891090996743	20
bin	8.1414954527061	23
bin	9.393881805738	10
bin	10.64626815877	19
bin	11.898654511802	10
bin	13.151040864834	18
bin	14.403427217865	15
bin	15.655813570897	8
bin	16.908199923929	10
bin	18.160586276961	12
bin	19.412972629993	6
bin	20.665358983025	0
bin	21.917745336057	0
bin	23.170131689089	0
bin	24.42251804212	0
bin	25.674904395152	0
bin	26.927290748184	0
bin	28.179677101216	0
scalar scenarioPRJP1.node[41].app 	sentPk:count 	2599
attr interpolationmode  none
attr source  sentPk
attr title  "packets sent, count"
scalar scenarioPRJP1.node[41].app 	sentPk:sum(packetBytes) 	1330688
attr interpolationmode  none
attr source  sentPk
attr title  "packets sent, sum(packetBytes)"
scalar scenarioPRJP1.node[41].udp 	droppedPkBadChecksum:count 	0
attr interpolationmode  none
attr title  "packets dropped (checksum error), count"
scalar scenarioPRJP1.node[41].udp 	droppedPkWrongPort:count 	0
attr interpolationmode  none
attr title  "packets dropped (wrong port), count"
scalar scenarioPRJP1.node[41].udp 	passedUpPk:count 	565
attr interpolationmode  none
attr title  "packets passed up, count"
scalar scenarioPRJP1.node[41].udp 	rcvdPk:count 	565
attr interpolationmode  none
attr source  rcvdPk
attr title  "packets received, count"
scalar scenarioPRJP1.node[41].udp 	rcvdPk:sum(packetBytes) 	293800
attr interpolationmode  none
attr source  rcvdPk
attr title  "packets received, sum(packetBytes)"
scalar scenarioPRJP1.node[41].udp 	sentPk:count 	2599
attr interpolationmode  none
attr source  sentPk
attr title  "packets sent, count"
scalar scenarioPRJP1.node[41].udp 	sentPk:sum(packetBytes) 	1351480
attr interpolationmode  none
attr source  sentPk
attr title  "packets sent, sum(packetBytes)"
scalar scenarioPRJP1.node[41].networkLayer.arp 	failedARPResolution:count 	7
attr title  "ARP failed resolutions, count"
scalar scenarioPRJP1.node[41].networkLayer.arp 	completedARPResolution:count 	480
attr title  "ARP completed resolutions, count"
scalar scenarioPRJP1.node[41].networkLayer.arp 	initiatedARPResolution:count 	78
attr title  "ARP initiated resolutions, count"
scalar scenarioPRJP1.node[41].networkLayer.arp 	sentReply:count 	48
attr title  "ARP replies sent, count"
scalar scenarioPRJP1.node[41].networkLayer.arp 	sentReq:count 	127
attr title  "ARP request sent, count"
scalar scenarioPRJP1.node[41].mobility 	startTime 	4.9
scalar scenarioPRJP1.node[41].mobility 	totalTime 	945.1
scalar scenarioPRJP1.node[41].mobility 	stopTime 	950
scalar scenarioPRJP1.node[41].mobility 	minSpeed 	2.4755768457504e-13
scalar scenarioPRJP1.node[41].mobility 	maxSpeed 	17.681573028382
scalar scenarioPRJP1.node[41].mobility 	totalDistance 	8986.074474677
scalar scenarioPRJP1.node[41].mobility 	totalCO2Emission 	2430.3830945831
scalar scenarioPRJP1.node[41].wlan.mgmt 	dataQueueLen:max 	50
attr interpolationmode  sample-hold
attr title  "data queue length, max"
scalar scenarioPRJP1.node[41].wlan.mgmt 	dataQueueLen:timeavg 	0
attr interpolationmode  sample-hold
attr title  "data queue length, timeavg"
scalar scenarioPRJP1.node[41].wlan.mgmt 	dropPkByQueue:count 	0
attr interpolationmode  none
attr source  dropPkByQueue
attr title  "packets dropped by queue, count"
scalar scenarioPRJP1.node[41].wlan.mgmt 	dropPkByQueue:sum(packetBytes) 	0
attr interpolationmode  none
attr source  dropPkByQueue
attr title  "packets dropped by queue, sum(packetBytes)"
scalar scenarioPRJP1.node[41].wlan.mac 	"number of received packets" 	5554
scalar scenarioPRJP1.node[41].wlan.mac 	"number of collisions" 	35876
scalar scenarioPRJP1.node[41].wlan.mac 	"number of internal collisions" 	0
scalar scenarioPRJP1.node[41].wlan.mac 	"number of retry for AC 0" 	10769
scalar scenarioPRJP1.node[41].wlan.mac 	"number of retry for AC 1" 	18
scalar scenarioPRJP1.node[41].wlan.mac 	"number of retry for AC 2" 	0
scalar scenarioPRJP1.node[41].wlan.mac 	"number of retry for AC 3" 	0
scalar scenarioPRJP1.node[41].wlan.mac 	"sent and received bits" 	19944416
scalar scenarioPRJP1.node[41].wlan.mac 	"sent packet within AC 0" 	913
scalar scenarioPRJP1.node[41].wlan.mac 	"sent packet within AC 1" 	0
scalar scenarioPRJP1.node[41].wlan.mac 	"sent packet within AC 2" 	0
scalar scenarioPRJP1.node[41].wlan.mac 	"sent packet within AC 3" 	0
scalar scenarioPRJP1.node[41].wlan.mac 	"sent in TXOP " 	0
scalar scenarioPRJP1.node[41].wlan.mac 	"sentWithoutRetry AC 0" 	758
scalar scenarioPRJP1.node[41].wlan.mac 	"sentWithoutRetry AC 1" 	0
scalar scenarioPRJP1.node[41].wlan.mac 	"sentWithoutRetry AC 2" 	0
scalar scenarioPRJP1.node[41].wlan.mac 	"sentWithoutRetry AC 3" 	0
scalar scenarioPRJP1.node[41].wlan.mac 	"numGivenUp AC 0" 	1729
scalar scenarioPRJP1.node[41].wlan.mac 	"numGivenUp AC 1" 	3
scalar scenarioPRJP1.node[41].wlan.mac 	"numGivenUp AC 2" 	0
scalar scenarioPRJP1.node[41].wlan.mac 	"numGivenUp AC 3" 	0
scalar scenarioPRJP1.node[41].wlan.mac 	"numDropped AC 0" 	2
scalar scenarioPRJP1.node[41].wlan.mac 	"numDropped AC 1" 	0
scalar scenarioPRJP1.node[41].wlan.mac 	"numDropped AC 2" 	0
scalar scenarioPRJP1.node[41].wlan.mac 	"numDropped AC 3" 	0
scalar scenarioPRJP1.node[41].wlan.mac 	rcvdPkFromLL:count 	161164
attr interpolationmode  none
attr source  packetReceivedFromLower
attr title  "packets received from lower layer, count"
scalar scenarioPRJP1.node[41].wlan.mac 	rcvdPkFromLL:sum(packetBytes) 	48714826
attr interpolationmode  none
attr source  packetReceivedFromLower
attr title  "packets received from lower layer, sum(packetBytes)"
scalar scenarioPRJP1.node[41].wlan.mac 	sentDownPk:count 	33439
attr interpolationmode  none
attr source  packetSentToLower
attr title  "packets sent to lower layer, count"
scalar scenarioPRJP1.node[41].wlan.mac 	sentDownPk:sum(packetBytes) 	9558077
attr interpolationmode  none
attr source  packetSentToLower
attr title  "packets sent to lower layer, sum(packetBytes)"
scalar scenarioPRJP1.node[41].wlan.mac 	rcvdPkFromHL:count 	17100
attr interpolationmode  none
attr source  packetReceivedFromUpper
attr title  "packets received from higher layer, count"
scalar scenarioPRJP1.node[41].wlan.mac 	rcvdPkFromHL:sum(packetBytes) 	3460234
attr interpolationmode  none
attr source  packetReceivedFromUpper
attr title  "packets received from higher layer, sum(packetBytes)"
scalar scenarioPRJP1.node[41].wlan.mac 	passedUpPk:count 	53237
attr interpolationmode  none
attr source  packetSentToUpper
attr title  "packets passed to higher layer, count"
scalar scenarioPRJP1.node[41].wlan.mac 	passedUpPk:sum(packetBytes) 	8152186
attr interpolationmode  none
attr source  packetSentToUpper
attr title  "packets passed to higher layer, sum(packetBytes)"
statistic scenarioPRJP1.node[41].wlan.radio 	radioChannel:histogram
field count 1
field mean 3
field stddev -nan
field sum 3
field sqrsum 9
field min 3
field max 3
attr interpolationmode  sample-hold
attr source  radioChannelChanged
attr title  "Radio channel, histogram"
bin	-INF	0
bin	2	0
bin	3	1
bin	4	0
scalar scenarioPRJP1.node[41].wlan.radio 	transmissionState:count 	133756
attr interpolationmode  sample-hold
attr source  transmissionStateChanged
attr title  "Radio transmission state, count"
scalar scenarioPRJP1.node[41].wlan.radio 	receptionState:count 	396491
attr interpolationmode  sample-hold
attr source  receptionStateChanged
attr title  "Radio reception state, count"
scalar scenarioPRJP1.node[41].wlan.radio 	radioMode:count 	66880
attr interpolationmode  sample-hold
attr source  radioModeChanged
attr title  "Radio mode, count"
statistic scenarioPRJP1.node[41].wlan.radio 	symbolErrorRate:histogram
field count 0
field mean -nan
field stddev -nan
field sum 0
field sqrsum 0
field min -nan
field max -nan
attr source  symbolErrorRate
attr title  "Symbol error rate, histogram"
bin	-INF	0
bin	-0.5	0
bin	-0.46666666666667	0
bin	-0.43333333333333	0
bin	-0.4	0
bin	-0.36666666666667	0
bin	-0.33333333333333	0
bin	-0.3	0
bin	-0.26666666666667	0
bin	-0.23333333333333	0
bin	-0.2	0
bin	-0.16666666666667	0
bin	-0.13333333333333	0
bin	-0.1	0
bin	-0.066666666666667	0
bin	-0.033333333333333	0
bin	0	0
bin	0.033333333333333	0
bin	0.066666666666667	0
bin	0.1	0
bin	0.13333333333333	0
bin	0.16666666666667	0
bin	0.2	0
bin	0.23333333333333	0
bin	0.26666666666667	0
bin	0.3	0
bin	0.33333333333333	0
bin	0.36666666666667	0
bin	0.4	0
bin	0.43333333333333	0
bin	0.46666666666667	0
bin	0.5	0
statistic scenarioPRJP1.node[41].wlan.radio 	bitErrorRate:histogram
field count 0
field mean -nan
field stddev -nan
field sum 0
field sqrsum 0
field min -nan
field max -nan
attr source  bitErrorRate
attr title  "Bit error rate, histogram"
bin	-INF	0
bin	-0.5	0
bin	-0.46666666666667	0
bin	-0.43333333333333	0
bin	-0.4	0
bin	-0.36666666666667	0
bin	-0.33333333333333	0
bin	-0.3	0
bin	-0.26666666666667	0
bin	-0.23333333333333	0
bin	-0.2	0
bin	-0.16666666666667	0
bin	-0.13333333333333	0
bin	-0.1	0
bin	-0.066666666666667	0
bin	-0.033333333333333	0
bin	0	0
bin	0.033333333333333	0
bin	0.066666666666667	0
bin	0.1	0
bin	0.13333333333333	0
bin	0.16666666666667	0
bin	0.2	0
bin	0.23333333333333	0
bin	0.26666666666667	0
bin	0.3	0
bin	0.33333333333333	0
bin	0.36666666666667	0
bin	0.4	0
bin	0.43333333333333	0
bin	0.46666666666667	0
bin	0.5	0
statistic scenarioPRJP1.node[41].wlan.radio 	packetErrorRate:histogram
field count 161164
field mean 0.20357091157832
field stddev 0.39263047495506
field sum 32808.302393608
field sqrsum 31523.492960065
field min 0
field max 1
attr source  packetErrorRate
attr title  "Packet error rate, histogram"
bin	-INF	0
bin	-1.8985270109906e-06	0
bin	-1.6453900761918e-06	0
bin	-1.3922531413931e-06	0
bin	-1.1391162065943e-06	0
bin	-8.859792717956e-07	0
bin	-6.3284233699686e-07	0
bin	-3.7970540219812e-07	0
bin	-1.2656846739937e-07	105019
bin	1.2656846739937e-07	1212
bin	3.7970540219812e-07	624
bin	6.3284233699686e-07	357
bin	8.859792717956e-07	291
bin	1.1391162065943e-06	266
bin	1.3922531413931e-06	184
bin	1.6453900761918e-06	175
bin	1.8985270109906e-06	159
bin	2.1516639457893e-06	137
bin	2.4048008805881e-06	134
bin	2.6579378153868e-06	106
bin	2.9110747501856e-06	83
bin	3.1642116849843e-06	102
bin	3.417348619783e-06	107
bin	3.6704855545818e-06	69
bin	3.9236224893805e-06	88
bin	4.1767594241793e-06	72
bin	4.429896358978e-06	70
bin	4.6830332937768e-06	57
bin	4.9361702285755e-06	65
bin	5.1893071633743e-06	77
bin	5.442444098173e-06	60
bin	5.6955810329717e-06	51650
statistic scenarioPRJP1.node[41].wlan.radio 	minSNIR:histogram
field count 161164
field mean 2626.2835566153
field stddev 29629.318549791
field sum 423262363.11835
field sqrsum 1.4259604347051e+14
field min 0.00017034863271239
field max 753239.71923442
attr source  minSNIR
attr title  "Min SNIR, histogram"
bin	-INF	0
bin	-77894.564346546	0
bin	-67508.107019417	0
bin	-57121.649692289	0
bin	-46735.19236516	0
bin	-36348.735038032	0
bin	-25962.277710904	0
bin	-15575.820383775	0
bin	-5189.3630566468	153876
bin	5197.0942704816	4153
bin	15583.55159761	1049
bin	25970.008924738	335
bin	36356.466251867	356
bin	46742.923578995	166
bin	57129.380906124	184
bin	67515.838233252	116
bin	77902.29556038	106
bin	88288.752887509	60
bin	98675.210214637	34
bin	109061.66754177	28
bin	119448.12486889	33
bin	129834.58219602	35
bin	140221.03952315	90
bin	150607.49685028	17
bin	160993.95417741	12
bin	171380.41150454	139
bin	181766.86883166	11
bin	192153.32615879	7
bin	202539.78348592	3
bin	212926.24081305	7
bin	223312.69814018	2
bin	233699.15546731	345
scalar scenarioPRJP1.node[41].lo0.lo 	droppedPkBitError:count 	0
attr interpolationmode  none
attr source  dropPkBitError
attr title  "packets dropped/bit error, count"
scalar scenarioPRJP1.node[41].lo0.lo 	droppedPkBitError:sum(packetBytes) 	0
attr interpolationmode  none
attr source  dropPkBitError
attr title  "packets dropped/bit error, sum(packetBytes)"
scalar scenarioPRJP1.node[41].lo0.lo 	rcvdPkFromHL:count 	0
attr interpolationmode  none
attr source  packetReceivedFromUpper
attr title  "packets received from higher layer, count"
scalar scenarioPRJP1.node[41].lo0.lo 	rcvdPkFromHL:sum(packetBytes) 	0
attr interpolationmode  none
attr source  packetReceivedFromUpper
attr title  "packets received from higher layer, sum(packetBytes)"
scalar scenarioPRJP1.node[41].lo0.lo 	passedUpPk:count 	0
attr interpolationmode  none
attr source  packetSentToUpper
attr title  "packets passed to higher layer, count"
scalar scenarioPRJP1.node[41].lo0.lo 	passedUpPk:sum(packetBytes) 	0
attr interpolationmode  none
attr source  packetSentToUpper
attr title  "packets passed to higher layer, sum(packetBytes)"
scalar scenarioPRJP1.node[61].app 	"Total sent" 	2612
scalar scenarioPRJP1.node[61].app 	"Total received" 	441
scalar scenarioPRJP1.node[61].app 	"Total deleted" 	88
scalar scenarioPRJP1.node[61].app 	dropPk:count 	88
attr interpolationmode  none
attr source  dropPk
attr title  "packets dropped, count"
scalar scenarioPRJP1.node[61].app 	dropPk:sum(packetBytes) 	45056
attr interpolationmode  none
attr source  dropPk
attr title  "packets dropped, sum(packetBytes)"
scalar scenarioPRJP1.node[61].app 	outOfOrderPk:count 	0
attr interpolationmode  none
attr source  outOfOrderPk
attr title  "packets received out of order, count"
scalar scenarioPRJP1.node[61].app 	outOfOrderPk:sum(packetBytes) 	0
attr interpolationmode  none
attr source  outOfOrderPk
attr title  "packets received out of order, sum(packetBytes)"
scalar scenarioPRJP1.node[61].app 	rcvdPk:count 	441
attr interpolationmode  none
attr source  rcvdPk
attr title  "packets received, count"
scalar scenarioPRJP1.node[61].app 	rcvdPk:sum(packetBytes) 	225792
attr interpolationmode  none
attr source  rcvdPk
attr title  "packets received, sum(packetBytes)"
statistic scenarioPRJP1.node[61].app 	endToEndDelay:histogram
field count 441
field mean 4.5837510060859
field stddev 5.6765379845378
field sum 2021.4341936839
field sqrsum 23443.907754591
field min 0.000945025215
field max 19.89859411958
attr interpolationmode  none
attr source  messageAge(rcvdPk)
attr title  "delay, histogram"
attr unit  s
bin	-INF	0
bin	-9.674869935542	0
bin	-8.3847612741077	0
bin	-7.0946526126735	0
bin	-5.8045439512392	0
bin	-4.5144352898049	0
bin	-3.2243266283707	0
bin	-1.9342179669364	0
bin	-0.64410930550213	198
bin	0.64599935593213	32
bin	1.9361080173664	25
bin	3.2262166788007	16
bin	4.5163253402349	23
bin	5.8064340016692	20
bin	7.0965426631035	13
bin	8.3866513245377	25
bin	9.676759985972	14
bin	10.966868647406	16
bin	12.256977308841	10
bin	13.547085970275	12
bin	14.837194631709	13
bin	16.127303293143	12
bin	17.417411954578	4
bin	18.707520616012	8
bin	19.997629277446	0
bin	21.28773793888	0
bin	22.577846600315	0
bin	23.867955261749	0
bin	25.158063923183	0
bin	26.448172584617	0
bin	27.738281246052	0
bin	29.028389907486	0
scalar scenarioPRJP1.node[61].app 	sentPk:count 	2612
attr interpolationmode  none
attr source  sentPk
attr title  "packets sent, count"
scalar scenarioPRJP1.node[61].app 	sentPk:sum(packetBytes) 	1337344
attr interpolationmode  none
attr source  sentPk
attr title  "packets sent, sum(packetBytes)"
scalar scenarioPRJP1.node[61].udp 	droppedPkBadChecksum:count 	0
attr interpolationmode  none
attr title  "packets dropped (checksum error), count"
scalar scenarioPRJP1.node[61].udp 	droppedPkWrongPort:count 	0
attr interpolationmode  none
attr title  "packets dropped (wrong port), count"
scalar scenarioPRJP1.node[61].udp 	passedUpPk:count 	529
attr interpolationmode  none
attr title  "packets passed up, count"
scalar scenarioPRJP1.node[61].udp 	rcvdPk:count 	529
attr interpolationmode  none
attr source  rcvdPk
attr title  "packets received, count"
scalar scenarioPRJP1.node[61].udp 	rcvdPk:sum(packetBytes) 	275080
attr interpolationmode  none
attr source  rcvdPk
attr title  "packets received, sum(packetBytes)"
scalar scenarioPRJP1.node[61].udp 	sentPk:count 	2612
attr interpolationmode  none
attr source  sentPk
attr title  "packets sent, count"
scalar scenarioPRJP1.node[61].udp 	sentPk:sum(packetBytes) 	1358240
attr interpolationmode  none
attr source  sentPk
attr title  "packets sent, sum(packetBytes)"
scalar scenarioPRJP1.node[61].networkLayer.arp 	failedARPResolution:count 	1
attr title  "ARP failed resolutions, count"
scalar scenarioPRJP1.node[61].networkLayer.arp 	completedARPResolution:count 	508
attr title  "ARP completed resolutions, count"
scalar scenarioPRJP1.node[61].networkLayer.arp 	initiatedARPResolution:count 	67
attr title  "ARP initiated resolutions, count"
scalar scenarioPRJP1.node[61].networkLayer.arp 	sentReply:count 	63
attr title  "ARP replies sent, count"
scalar scenarioPRJP1.node[61].networkLayer.arp 	sentReq:count 	97
attr title  "ARP request sent, count"
scalar scenarioPRJP1.node[61].mobility 	startTime 	7.3
scalar scenarioPRJP1.node[61].mobility 	totalTime 	942.7
scalar scenarioPRJP1.node[61].mobility 	stopTime 	950
scalar scenarioPRJP1.node[61].mobility 	minSpeed 	2.4754363097618e-13
scalar scenarioPRJP1.node[61].mobility 	maxSpeed 	17.421795682635
scalar scenarioPRJP1.node[61].mobility 	totalDistance 	9303.5154925749
scalar scenarioPRJP1.node[61].mobility 	totalCO2Emission 	2397.1604300489
scalar scenarioPRJP1.node[61].wlan.mgmt 	dataQueueLen:max 	74
attr interpolationmode  sample-hold
attr title  "data queue length, max"
scalar scenarioPRJP1.node[61].wlan.mgmt 	dataQueueLen:timeavg 	0.0062434761979378
attr interpolationmode  sample-hold
attr title  "data queue length, timeavg"
scalar scenarioPRJP1.node[61].wlan.mgmt 	dropPkByQueue:count 	0
attr interpolationmode  none
attr source  dropPkByQueue
attr title  "packets dropped by queue, count"
scalar scenarioPRJP1.node[61].wlan.mgmt 	dropPkByQueue:sum(packetBytes) 	0
attr interpolationmode  none
attr source  dropPkByQueue
attr title  "packets dropped by queue, sum(packetBytes)"
scalar scenarioPRJP1.node[61].wlan.mac 	"number of received packets" 	5801
scalar scenarioPRJP1.node[61].wlan.mac 	"number of collisions" 	38128
scalar scenarioPRJP1.node[61].wlan.mac 	"number of internal collisions" 	0
scalar scenarioPRJP1.node[61].wlan.mac 	"number of retry for AC 0" 	13268
scalar scenarioPRJP1.node[61].wlan.mac 	"number of retry for AC 1" 	12
scalar scenarioPRJP1.node[61].wlan.mac 	"number of retry for AC 2" 	0
scalar scenarioPRJP1.node[61].wlan.mac 	"number of retry for AC 3" 	0
scalar scenarioPRJP1.node[61].wlan.mac 	"sent and received bits" 	19705344
scalar scenarioPRJP1.node[61].wlan.mac 	"sent packet within AC 0" 	1020
scalar scenarioPRJP1.node[61].wlan.mac 	"sent packet within AC 1" 	0
scalar scenarioPRJP1.node[61].wlan.mac 	"sent packet within AC 2" 	0
scalar scenarioPRJP1.node[61].wlan.mac 	"sent packet within AC 3" 	0
scalar scenarioPRJP1.node[61].wlan.mac 	"sent in TXOP " 	0
scalar scenarioPRJP1.node[61].wlan.mac 	"sentWithoutRetry AC 0" 	813
scalar scenarioPRJP1.node[61].wlan.mac 	"sentWithoutRetry AC 1" 	0
scalar scenarioPRJP1.node[61].wlan.mac 	"sentWithoutRetry AC 2" 	0
scalar scenarioPRJP1.node[61].wlan.mac 	"sentWithoutRetry AC 3" 	0
scalar scenarioPRJP1.node[61].wlan.mac 	"numGivenUp AC 0" 	2120
scalar scenarioPRJP1.node[61].wlan.mac 	"numGivenUp AC 1" 	2
scalar scenarioPRJP1.node[61].wlan.mac 	"numGivenUp AC 2" 	0
scalar scenarioPRJP1.node[61].wlan.mac 	"numGivenUp AC 3" 	0
scalar scenarioPRJP1.node[61].wlan.mac 	"numDropped AC 0" 	19
scalar scenarioPRJP1.node[61].wlan.mac 	"numDropped AC 1" 	0
scalar scenarioPRJP1.node[61].wlan.mac 	"numDropped AC 2" 	0
scalar scenarioPRJP1.node[61].wlan.mac 	"numDropped AC 3" 	0
scalar scenarioPRJP1.node[61].wlan.mac 	rcvdPkFromLL:count 	164212
attr interpolationmode  none
attr source  packetReceivedFromLower
attr title  "packets received from lower layer, count"
scalar scenarioPRJP1.node[61].wlan.mac 	rcvdPkFromLL:sum(packetBytes) 	51652875
attr interpolationmode  none
attr source  packetReceivedFromLower
attr title  "packets received from lower layer, sum(packetBytes)"
scalar scenarioPRJP1.node[61].wlan.mac 	sentDownPk:count 	36134
attr interpolationmode  none
attr source  packetSentToLower
attr title  "packets sent to lower layer, count"
scalar scenarioPRJP1.node[61].wlan.mac 	sentDownPk:sum(packetBytes) 	11148773
attr interpolationmode  none
attr source  packetSentToLower
attr title  "packets sent to lower layer, sum(packetBytes)"
scalar scenarioPRJP1.node[61].wlan.mac 	rcvdPkFromHL:count 	17072
attr interpolationmode  none
attr source  packetReceivedFromUpper
attr title  "packets received from higher layer, count"
scalar scenarioPRJP1.node[61].wlan.mac 	rcvdPkFromHL:sum(packetBytes) 	3657292
attr interpolationmode  none
attr source  packetReceivedFromUpper
attr title  "packets received from higher layer, sum(packetBytes)"
scalar scenarioPRJP1.node[61].wlan.mac 	passedUpPk:count 	48302
attr interpolationmode  none
attr source  packetSentToUpper
attr title  "packets passed to higher layer, count"
scalar scenarioPRJP1.node[61].wlan.mac 	passedUpPk:sum(packetBytes) 	7687218
attr interpolationmode  none
attr source  packetSentToUpper
attr title  "packets passed to higher layer, sum(packetBytes)"
statistic scenarioPRJP1.node[61].wlan.radio 	radioChannel:histogram
field count 1
field mean 3
field stddev -nan
field sum 3
field sqrsum 9
field min 3
field max 3
attr interpolationmode  sample-hold
attr source  radioChannelChanged
attr title  "Radio channel, histogram"
bin	-INF	0
bin	2	0
bin	3	1
bin	4	0
scalar scenarioPRJP1.node[61].wlan.radio 	transmissionState:count 	144536
attr interpolationmode  sample-hold
attr source  transmissionStateChanged
attr title  "Radio transmission state, count"
scalar scenarioPRJP1.node[61].wlan.radio 	receptionState:count 	408959
attr interpolationmode  sample-hold
attr source  receptionStateChanged
attr title  "Radio reception state, count"
scalar scenarioPRJP1.node[61].wlan.radio 	radioMode:count 	72270
attr interpolationmode  sample-hold
attr source  radioModeChanged
attr title  "Radio mode, count"
statistic scenarioPRJP1.node[61].wlan.radio 	symbolErrorRate:histogram
field count 0
field mean -nan
field stddev -nan
field sum 0
field sqrsum 0
field min -nan
field max -nan
attr source  symbolErrorRate
attr title  "Symbol error rate, histogram"
bin	-INF	0
bin	-0.5	0
bin	-0.46666666666667	0
bin	-0.43333333333333	0
bin	-0.4	0
bin	-0.36666666666667	0
bin	-0.33333333333333	0
bin	-0.3	0
bin	-0.26666666666667	0
bin	-0.23333333333333	0
bin	-0.2	0
bin	-0.16666666666667	0
bin	-0.13333333333333	0
bin	-0.1	0
bin	-0.066666666666667	0
bin	-0.033333333333333	0
bin	0	0
bin	0.033333333333333	0
bin	0.066666666666667	0
bin	0.1	0
bin	0.13333333333333	0
bin	0.16666666666667	0
bin	0.2	0
bin	0.23333333333333	0
bin	0.26666666666667	0
bin	0.3	0
bin	0.33333333333333	0
bin	0.36666666666667	0
bin	0.4	0
bin	0.43333333333333	0
bin	0.46666666666667	0
bin	0.5	0
statistic scenarioPRJP1.node[61].wlan.radio 	bitErrorRate:histogram
field count 0
field mean -nan
field stddev -nan
field sum 0
field sqrsum 0
field min -nan
field max -nan
attr source  bitErrorRate
attr title  "Bit error rate, histogram"
bin	-INF	0
bin	-0.5	0
bin	-0.46666666666667	0
bin	-0.43333333333333	0
bin	-0.4	0
bin	-0.36666666666667	0
bin	-0.33333333333333	0
bin	-0.3	0
bin	-0.26666666666667	0
bin	-0.23333333333333	0
bin	-0.2	0
bin	-0.16666666666667	0
bin	-0.13333333333333	0
bin	-0.1	0
bin	-0.066666666666667	0
bin	-0.033333333333333	0
bin	0	0
bin	0.033333333333333	0
bin	0.066666666666667	0
bin	0.1	0
bin	0.13333333333333	0
bin	0.16666666666667	0
bin	0.2	0
bin	0.23333333333333	0
bin	0.26666666666667	0
bin	0.3	0
bin	0.33333333333333	0
bin	0.36666666666667	0
bin	0.4	0
bin	0.43333333333333	0
bin	0.46666666666667	0
bin	0.5	0
statistic scenarioPRJP1.node[61].wlan.radio 	packetErrorRate:histogram
field count 164212
field mean 0.21390173814516
field stddev 0.40074561141089
field sum 35125.232224293
field sqrsum 33885.149592711
field min 0
field max 1
attr source  packetErrorRate
attr title  "Packet error rate, histogram"
bin	-INF	0
bin	-0.25738386325281	0
bin	-0.2230660148191	0
bin	-0.1887481663854	0
bin	-0.15443031795169	0
bin	-0.12011246951798	0
bin	-0.085794621084271	0
bin	-0.051476772650563	0
bin	-0.017158924216854	122815
bin	0.017158924216854	2063
bin	0.051476772650562	909
bin	0.085794621084271	670
bin	0.12011246951798	524
bin	0.15443031795169	382
bin	0.1887481663854	302
bin	0.2230660148191	278
bin	0.25738386325281	213
bin	0.29170171168652	250
bin	0.32601956012023	260
bin	0.36033740855394	226
bin	0.39465525698765	218
bin	0.42897310542135	178
bin	0.46329095385506	204
bin	0.49760880228877	157
bin	0.53192665072248	175
bin	0.56624449915619	145
bin	0.6005623475899	145
bin	0.6348801960236	181
bin	0.66919804445731	156
bin	0.70351589289102	170
bin	0.73783374132473	180
bin	0.77215158975844	33411
statistic scenarioPRJP1.node[61].wlan.radio 	minSNIR:histogram
field count 164212
field mean 2436.5165417147
field stddev 27109.097011906
field sum 400105254.34805
field sqrsum 1.2165404272471e+14
field min 0.00022698172625516
field max 753239.71923443
attr source  minSNIR
attr title  "Min SNIR, histogram"
bin	-INF	0
bin	-14851.316252102	0
bin	-12870.860650721	0
bin	-10890.40504934	0
bin	-8909.9494479587	0
bin	-6929.4938465775	0
bin	-4949.0382451963	0
bin	-2968.582643815	0
bin	-988.12704243381	148649
bin	992.32855894741	6603
bin	2972.7841603286	2215
bin	4953.2397617099	1304
bin	6933.6953630911	706
bin	8914.1509644723	636
bin	10894.606565854	513
bin	12875.062167235	419
bin	14855.517768616	194
bin	16835.973369997	198
bin	18816.428971378	174
bin	20796.88457276	266
bin	22777.340174141	218
bin	24757.795775522	72
bin	26738.251376903	82
bin	28718.706978285	68
bin	30699.162579666	94
bin	32679.618181047	59
bin	34660.073782428	50
bin	36640.529383809	43
bin	38620.984985191	46
bin	40601.440586572	59
bin	42581.896187953	49
bin	44562.351789334	1495
scalar scenarioPRJP1.node[61].lo0.lo 	droppedPkBitError:count 	0
attr interpolationmode  none
attr source  dropPkBitError
attr title  "packets dropped/bit error, count"
scalar scenarioPRJP1.node[61].lo0.lo 	droppedPkBitError:sum(packetBytes) 	0
attr interpolationmode  none
attr source  dropPkBitError
attr title  "packets dropped/bit error, sum(packetBytes)"
scalar scenarioPRJP1.node[61].lo0.lo 	rcvdPkFromHL:count 	0
attr interpolationmode  none
attr source  packetReceivedFromUpper
attr title  "packets received from higher layer, count"
scalar scenarioPRJP1.node[61].lo0.lo 	rcvdPkFromHL:sum(packetBytes) 	0
attr interpolationmode  none
attr source  packetReceivedFromUpper
attr title  "packets received from higher layer, sum(packetBytes)"
scalar scenarioPRJP1.node[61].lo0.lo 	passedUpPk:count 	0
attr interpolationmode  none
attr source  packetSentToUpper
attr title  "packets passed to higher layer, count"
scalar scenarioPRJP1.node[61].lo0.lo 	passedUpPk:sum(packetBytes) 	0
attr interpolationmode  none
attr source  packetSentToUpper
attr title  "packets passed to higher layer, sum(packetBytes)"
scalar scenarioPRJP1.node[1].app 	"Total sent" 	2626
scalar scenarioPRJP1.node[1].app 	"Total received" 	464
scalar scenarioPRJP1.node[1].app 	"Total deleted" 	78
scalar scenarioPRJP1.node[1].app 	dropPk:count 	78
attr interpolationmode  none
attr source  dropPk
attr title  "packets dropped, count"
scalar scenarioPRJP1.node[1].app 	dropPk:sum(packetBytes) 	39936
attr interpolationmode  none
attr source  dropPk
attr title  "packets dropped, sum(packetBytes)"
scalar scenarioPRJP1.node[1].app 	outOfOrderPk:count 	1
attr interpolationmode  none
attr source  outOfOrderPk
attr title  "packets received out of order, count"
scalar scenarioPRJP1.node[1].app 	outOfOrderPk:sum(packetBytes) 	512
attr interpolationmode  none
attr source  outOfOrderPk
attr title  "packets received out of order, sum(packetBytes)"
scalar scenarioPRJP1.node[1].app 	rcvdPk:count 	464
attr interpolationmode  none
attr source  rcvdPk
attr title  "packets received, count"
scalar scenarioPRJP1.node[1].app 	rcvdPk:sum(packetBytes) 	237568
attr interpolationmode  none
attr source  rcvdPk
attr title  "packets received, sum(packetBytes)"
statistic scenarioPRJP1.node[1].app 	endToEndDelay:histogram
field count 464
field mean 4.7426993625449
field stddev 5.5863812940686
field sum 2200.6125042208
field sqrsum 24885.988231715
field min 0.000945015999
field max 19.975861705614
attr interpolationmode  none
attr source  messageAge(rcvdPk)
attr title  "delay, histogram"
attr unit  s
bin	-INF	0
bin	-9.9865133100345	0
bin	-8.6548521982279	0
bin	-7.3231910864213	0
bin	-5.9915299746147	0
bin	-4.6598688628081	0
bin	-3.3282077510015	0
bin	-1.9965466391949	0
bin	-0.6648855273883	197
bin	0.6667755844183	30
bin	1.9984366962249	19
bin	3.3300978080315	29
bin	4.6617589198381	31
bin	5.9934200316447	20
bin	7.3250811434513	32
bin	8.6567422552579	14
bin	9.9884033670645	22
bin	11.320064478871	9
bin	12.651725590678	19
bin	13.983386702484	14
bin	15.315047814291	7
bin	16.646708926098	6
bin	17.978370037904	5
bin	19.310031149711	10
bin	20.641692261517	0
bin	21.973353373324	0
bin	23.30501448513	0
bin	24.636675596937	0
bin	25.968336708744	0
bin	27.29999782055	0
bin	28.631658932357	0
bin	29.963320044164	0
scalar scenarioPRJP1.node[1].app 	sentPk:count 	2626
attr interpolationmode  none
attr source  sentPk
attr title  "packets sent, count"
scalar scenarioPRJP1.node[1].app 	sentPk:sum(packetBytes) 	1344512
attr interpolationmode  none
attr source  sentPk
attr title  "packets sent, sum(packetBytes)"
scalar scenarioPRJP1.node[1].udp 	droppedPkBadChecksum:count 	0
attr interpolationmode  none
attr title  "packets dropped (checksum error), count"
scalar scenarioPRJP1.node[1].udp 	droppedPkWrongPort:count 	0
attr interpolationmode  none
attr title  "packets dropped (wrong port), count"
scalar scenarioPRJP1.node[1].udp 	passedUpPk:count 	543
attr interpolationmode  none
attr title  "packets passed up, count"
scalar scenarioPRJP1.node[1].udp 	rcvdPk:count 	543
attr interpolationmode  none
attr source  rcvdPk
attr title  "packets received, count"
scalar scenarioPRJP1.node[1].udp 	rcvdPk:sum(packetBytes) 	282360
attr interpolationmode  none
attr source  rcvdPk
attr title  "packets received, sum(packetBytes)"
scalar scenarioPRJP1.node[1].udp 	sentPk:count 	2626
attr interpolationmode  none
attr source  sentPk
attr title  "packets sent, count"
scalar scenarioPRJP1.node[1].udp 	sentPk:sum(packetBytes) 	1365520
attr interpolationmode  none
attr source  sentPk
attr title  "packets sent, sum(packetBytes)"
scalar scenarioPRJP1.node[1].networkLayer.arp 	failedARPResolution:count 	6
attr title  "ARP failed resolutions, count"
scalar scenarioPRJP1.node[1].networkLayer.arp 	completedARPResolution:count 	491
attr title  "ARP completed resolutions, count"
scalar scenarioPRJP1.node[1].networkLayer.arp 	initiatedARPResolution:count 	67
attr title  "ARP initiated resolutions, count"
scalar scenarioPRJP1.node[1].networkLayer.arp 	sentReply:count 	45
attr title  "ARP replies sent, count"
scalar scenarioPRJP1.node[1].networkLayer.arp 	sentReq:count 	108
attr title  "ARP request sent, count"
scalar scenarioPRJP1.node[1].mobility 	startTime 	0.1
scalar scenarioPRJP1.node[1].mobility 	totalTime 	949.9
scalar scenarioPRJP1.node[1].mobility 	stopTime 	950
scalar scenarioPRJP1.node[1].mobility 	minSpeed 	2.4755119072462e-13
scalar scenarioPRJP1.node[1].mobility 	maxSpeed 	17.107800966639
scalar scenarioPRJP1.node[1].mobility 	totalDistance 	8603.9814765582
scalar scenarioPRJP1.node[1].mobility 	totalCO2Emission 	2451.820497942
scalar scenarioPRJP1.node[1].wlan.mgmt 	dataQueueLen:max 	27
attr interpolationmode  sample-hold
attr title  "data queue length, max"
scalar scenarioPRJP1.node[1].wlan.mgmt 	dataQueueLen:timeavg 	0.01809079398911
attr interpolationmode  sample-hold
attr title  "data queue length, timeavg"
scalar scenarioPRJP1.node[1].wlan.mgmt 	dropPkByQueue:count 	0
attr interpolationmode  none
attr source  dropPkByQueue
attr title  "packets dropped by queue, count"
scalar scenarioPRJP1.node[1].wlan.mgmt 	dropPkByQueue:sum(packetBytes) 	0
attr interpolationmode  none
attr source  dropPkByQueue
attr title  "packets dropped by queue, sum(packetBytes)"
scalar scenarioPRJP1.node[1].wlan.mac 	"number of received packets" 	5102
scalar scenarioPRJP1.node[1].wlan.mac 	"number of collisions" 	35168
scalar scenarioPRJP1.node[1].wlan.mac 	"number of internal collisions" 	0
scalar scenarioPRJP1.node[1].wlan.mac 	"number of retry for AC 0" 	11684
scalar scenarioPRJP1.node[1].wlan.mac 	"number of retry for AC 1" 	1
scalar scenarioPRJP1.node[1].wlan.mac 	"number of retry for AC 2" 	0
scalar scenarioPRJP1.node[1].wlan.mac 	"number of retry for AC 3" 	0
scalar scenarioPRJP1.node[1].wlan.mac 	"sent and received bits" 	20372080
scalar scenarioPRJP1.node[1].wlan.mac 	"sent packet within AC 0" 	1014
scalar scenarioPRJP1.node[1].wlan.mac 	"sent packet within AC 1" 	1
scalar scenarioPRJP1.node[1].wlan.mac 	"sent packet within AC 2" 	0
scalar scenarioPRJP1.node[1].wlan.mac 	"sent packet within AC 3" 	0
scalar scenarioPRJP1.node[1].wlan.mac 	"sent in TXOP " 	0
scalar scenarioPRJP1.node[1].wlan.mac 	"sentWithoutRetry AC 0" 	801
scalar scenarioPRJP1.node[1].wlan.mac 	"sentWithoutRetry AC 1" 	0
scalar scenarioPRJP1.node[1].wlan.mac 	"sentWithoutRetry AC 2" 	0
scalar scenarioPRJP1.node[1].wlan.mac 	"sentWithoutRetry AC 3" 	0
scalar scenarioPRJP1.node[1].wlan.mac 	"numGivenUp AC 0" 	1864
scalar scenarioPRJP1.node[1].wlan.mac 	"numGivenUp AC 1" 	0
scalar scenarioPRJP1.node[1].wlan.mac 	"numGivenUp AC 2" 	0
scalar scenarioPRJP1.node[1].wlan.mac 	"numGivenUp AC 3" 	0
scalar scenarioPRJP1.node[1].wlan.mac 	"numDropped AC 0" 	79
scalar scenarioPRJP1.node[1].wlan.mac 	"numDropped AC 1" 	0
scalar scenarioPRJP1.node[1].wlan.mac 	"numDropped AC 2" 	0
scalar scenarioPRJP1.node[1].wlan.mac 	"numDropped AC 3" 	0
scalar scenarioPRJP1.node[1].wlan.mac 	rcvdPkFromLL:count 	177410
attr interpolationmode  none
attr source  packetReceivedFromLower
attr title  "packets received from lower layer, count"
scalar scenarioPRJP1.node[1].wlan.mac 	rcvdPkFromLL:sum(packetBytes) 	54307753
attr interpolationmode  none
attr source  packetReceivedFromLower
attr title  "packets received from lower layer, sum(packetBytes)"
scalar scenarioPRJP1.node[1].wlan.mac 	sentDownPk:count 	34276
attr interpolationmode  none
attr source  packetSentToLower
attr title  "packets sent to lower layer, count"
scalar scenarioPRJP1.node[1].wlan.mac 	sentDownPk:sum(packetBytes) 	10248647
attr interpolationmode  none
attr source  packetSentToLower
attr title  "packets sent to lower layer, sum(packetBytes)"
scalar scenarioPRJP1.node[1].wlan.mac 	rcvdPkFromHL:count 	17568
attr interpolationmode  none
attr source  packetReceivedFromUpper
attr title  "packets received from higher layer, count"
scalar scenarioPRJP1.node[1].wlan.mac 	rcvdPkFromHL:sum(packetBytes) 	3632361
attr interpolationmode  none
attr source  packetReceivedFromUpper
attr title  "packets received from higher layer, sum(packetBytes)"
scalar scenarioPRJP1.node[1].wlan.mac 	passedUpPk:count 	55427
attr interpolationmode  none
attr source  packetSentToUpper
attr title  "packets passed to higher layer, count"
scalar scenarioPRJP1.node[1].wlan.mac 	passedUpPk:sum(packetBytes) 	8532656
attr interpolationmode  none
attr source  packetSentToUpper
attr title  "packets passed to higher layer, sum(packetBytes)"
statistic scenarioPRJP1.node[1].wlan.radio 	radioChannel:histogram
field count 1
field mean 3
field stddev -nan
field sum 3
field sqrsum 9
field min 3
field max 3
attr interpolationmode  sample-hold
attr source  radioChannelChanged
attr title  "Radio channel, histogram"
bin	-INF	0
bin	2	0
bin	3	1
bin	4	0
scalar scenarioPRJP1.node[1].wlan.radio 	transmissionState:count 	137104
attr interpolationmode  sample-hold
attr source  transmissionStateChanged
attr title  "Radio transmission state, count"
scalar scenarioPRJP1.node[1].wlan.radio 	receptionState:count 	431444
attr interpolationmode  sample-hold
attr source  receptionStateChanged
attr title  "Radio reception state, count"
scalar scenarioPRJP1.node[1].wlan.radio 	radioMode:count 	68554
attr interpolationmode  sample-hold
attr source  radioModeChanged
attr title  "Radio mode, count"
statistic scenarioPRJP1.node[1].wlan.radio 	symbolErrorRate:histogram
field count 0
field mean -nan
field stddev -nan
field sum 0
field sqrsum 0
field min -nan
field max -nan
attr source  symbolErrorRate
attr title  "Symbol error rate, histogram"
bin	-INF	0
bin	-0.5	0
bin	-0.46666666666667	0
bin	-0.43333333333333	0
bin	-0.4	0
bin	-0.36666666666667	0
bin	-0.33333333333333	0
bin	-0.3	0
bin	-0.26666666666667	0
bin	-0.23333333333333	0
bin	-0.2	0
bin	-0.16666666666667	0
bin	-0.13333333333333	0
bin	-0.1	0
bin	-0.066666666666667	0
bin	-0.033333333333333	0
bin	0	0
bin	0.033333333333333	0
bin	0.066666666666667	0
bin	0.1	0
bin	0.13333333333333	0
bin	0.16666666666667	0
bin	0.2	0
bin	0.23333333333333	0
bin	0.26666666666667	0
bin	0.3	0
bin	0.33333333333333	0
bin	0.36666666666667	0
bin	0.4	0
bin	0.43333333333333	0
bin	0.46666666666667	0
bin	0.5	0
statistic scenarioPRJP1.node[1].wlan.radio 	bitErrorRate:histogram
field count 0
field mean -nan
field stddev -nan
field sum 0
field sqrsum 0
field min -nan
field max -nan
attr source  bitErrorRate
attr title  "Bit error rate, histogram"
bin	-INF	0
bin	-0.5	0
bin	-0.46666666666667	0
bin	-0.43333333333333	0
bin	-0.4	0
bin	-0.36666666666667	0
bin	-0.33333333333333	0
bin	-0.3	0
bin	-0.26666666666667	0
bin	-0.23333333333333	0
bin	-0.2	0
bin	-0.16666666666667	0
bin	-0.13333333333333	0
bin	-0.1	0
bin	-0.066666666666667	0
bin	-0.033333333333333	0
bin	0	0
bin	0.033333333333333	0
bin	0.066666666666667	0
bin	0.1	0
bin	0.13333333333333	0
bin	0.16666666666667	0
bin	0.2	0
bin	0.23333333333333	0
bin	0.26666666666667	0
bin	0.3	0
bin	0.33333333333333	0
bin	0.36666666666667	0
bin	0.4	0
bin	0.43333333333333	0
bin	0.46666666666667	0
bin	0.5	0
statistic scenarioPRJP1.node[1].wlan.radio 	packetErrorRate:histogram
field count 177410
field mean 0.1817922833493
field stddev 0.37658355445121
field sum 32251.768989
field sqrsum 31022.410839029
field min 0
field max 1
attr source  packetErrorRate
attr title  "Packet error rate, histogram"
bin	-INF	0
bin	-0.5	0
bin	-0.43333333333333	0
bin	-0.36666666666667	0
bin	-0.3	0
bin	-0.23333333333333	0
bin	-0.16666666666667	0
bin	-0.1	0
bin	-0.033333333333333	140092
bin	0.033333333333333	2095
bin	0.1	1021
bin	0.16666666666667	632
bin	0.23333333333333	488
bin	0.3	458
bin	0.36666666666667	432
bin	0.43333333333333	359
bin	0.5	350
bin	0.56666666666667	302
bin	0.63333333333333	274
bin	0.7	321
bin	0.76666666666667	367
bin	0.83333333333333	466
bin	0.9	659
bin	0.96666666666667	29094
bin	1.0333333333333	0
bin	1.1	0
bin	1.1666666666667	0
bin	1.2333333333333	0
bin	1.3	0
bin	1.3666666666667	0
bin	1.4333333333333	0
bin	1.5	0
statistic scenarioPRJP1.node[1].wlan.radio 	minSNIR:histogram
field count 177410
field mean 4868.9008197648
field stddev 42985.203422719
field sum 863791694.43447
field sqrsum 3.3200924197665e+14
field min 0.00017057934028811
field max 753239.71923443
attr source  minSNIR
attr title  "Min SNIR, histogram"
bin	-INF	0
bin	-300944.28111152	0
bin	-260818.11131895	0
bin	-220691.94152638	0
bin	-180565.77173381	0
bin	-140439.60194124	0
bin	-100313.43214867	0
bin	-60187.262356096	0
bin	-20061.092563524	172700
bin	20065.077229047	2257
bin	60191.247021619	645
bin	100317.41681419	251
bin	140443.58660676	730
bin	180569.75639933	85
bin	220695.9261919	56
bin	260822.09598448	47
bin	300948.26577705	49
bin	341074.43556962	34
bin	381200.60536219	27
bin	421326.77515476	11
bin	461452.94494733	11
bin	501579.1147399	24
bin	541705.28453248	13
bin	581831.45432505	5
bin	621957.62411762	9
bin	662083.79391019	16
bin	702209.96370276	10
bin	742336.13349533	430
bin	782462.3032879	0
bin	822588.47308048	0
bin	862714.64287305	0
bin	902840.81266562	0
scalar scenarioPRJP1.node[1].lo0.lo 	droppedPkBitError:count 	0
attr interpolationmode  none
attr source  dropPkBitError
attr title  "packets dropped/bit error, count"
scalar scenarioPRJP1.node[1].lo0.lo 	droppedPkBitError:sum(packetBytes) 	0
attr interpolationmode  none
attr source  dropPkBitError
attr title  "packets dropped/bit error, sum(packetBytes)"
scalar scenarioPRJP1.node[1].lo0.lo 	rcvdPkFromHL:count 	0
attr interpolationmode  none
attr source  packetReceivedFromUpper
attr title  "packets received from higher layer, count"
scalar scenarioPRJP1.node[1].lo0.lo 	rcvdPkFromHL:sum(packetBytes) 	0
attr interpolationmode  none
attr source  packetReceivedFromUpper
attr title  "packets received from higher layer, sum(packetBytes)"
scalar scenarioPRJP1.node[1].lo0.lo 	passedUpPk:count 	0
attr interpolationmode  none
attr source  packetSentToUpper
attr title  "packets passed to higher layer, count"
scalar scenarioPRJP1.node[1].lo0.lo 	passedUpPk:sum(packetBytes) 	0
attr interpolationmode  none
attr source  packetSentToUpper
attr title  "packets passed to higher layer, sum(packetBytes)"
scalar scenarioPRJP1.node[22].app 	"Total sent" 	2624
scalar scenarioPRJP1.node[22].app 	"Total received" 	495
scalar scenarioPRJP1.node[22].app 	"Total deleted" 	78
scalar scenarioPRJP1.node[22].app 	dropPk:count 	78
attr interpolationmode  none
attr source  dropPk
attr title  "packets dropped, count"
scalar scenarioPRJP1.node[22].app 	dropPk:sum(packetBytes) 	39936
attr interpolationmode  none
attr source  dropPk
attr title  "packets dropped, sum(packetBytes)"
scalar scenarioPRJP1.node[22].app 	outOfOrderPk:count 	0
attr interpolationmode  none
attr source  outOfOrderPk
attr title  "packets received out of order, count"
scalar scenarioPRJP1.node[22].app 	outOfOrderPk:sum(packetBytes) 	0
attr interpolationmode  none
attr source  outOfOrderPk
attr title  "packets received out of order, sum(packetBytes)"
scalar scenarioPRJP1.node[22].app 	rcvdPk:count 	495
attr interpolationmode  none
attr source  rcvdPk
attr title  "packets received, count"
scalar scenarioPRJP1.node[22].app 	rcvdPk:sum(packetBytes) 	253440
attr interpolationmode  none
attr source  rcvdPk
attr title  "packets received, sum(packetBytes)"
statistic scenarioPRJP1.node[22].app 	endToEndDelay:histogram
field count 495
field mean 4.0205480346651
field stddev 5.4506312328776
field sum 1990.1712771592
field sqrsum 22678.013350419
field min 0.000945013388
field max 19.995656574736
attr interpolationmode  none
attr source  messageAge(rcvdPk)
attr title  "delay, histogram"
attr unit  s
bin	-INF	0
bin	-9.4648557271255	0
bin	-8.2027489567668	0
bin	-6.940642186408	0
bin	-5.6785354160493	0
bin	-4.4164286456906	0
bin	-3.1543218753318	0
bin	-1.8922151049731	0
bin	-0.63010833461437	253
bin	0.63199843574437	29
bin	1.8941052061031	23
bin	3.1562119764618	25
bin	4.4183187468206	16
bin	5.6804255171793	23
bin	6.942532287538	12
bin	8.2046390578968	16
bin	9.4667458282555	21
bin	10.728852598614	20
bin	11.990959368973	11
bin	13.253066139332	8
bin	14.51517290969	10
bin	15.777279680049	12
bin	17.039386450408	7
bin	18.301493220767	7
bin	19.563599991125	2
bin	20.825706761484	0
bin	22.087813531843	0
bin	23.349920302202	0
bin	24.61202707256	0
bin	25.874133842919	0
bin	27.136240613278	0
bin	28.398347383637	0
scalar scenarioPRJP1.node[22].app 	sentPk:count 	2624
attr interpolationmode  none
attr source  sentPk
attr title  "packets sent, count"
scalar scenarioPRJP1.node[22].app 	sentPk:sum(packetBytes) 	1343488
attr interpolationmode  none
attr source  sentPk
attr title  "packets sent, sum(packetBytes)"
scalar scenarioPRJP1.node[22].udp 	droppedPkBadChecksum:count 	0
attr interpolationmode  none
attr title  "packets dropped (checksum error), count"
scalar scenarioPRJP1.node[22].udp 	droppedPkWrongPort:count 	0
attr interpolationmode  none
attr title  "packets dropped (wrong port), count"
scalar scenarioPRJP1.node[22].udp 	passedUpPk:count 	573
attr interpolationmode  none
attr title  "packets passed up, count"
scalar scenarioPRJP1.node[22].udp 	rcvdPk:count 	573
attr interpolationmode  none
attr source  rcvdPk
attr title  "packets received, count"
scalar scenarioPRJP1.node[22].udp 	rcvdPk:sum(packetBytes) 	297960
attr interpolationmode  none
attr source  rcvdPk
attr title  "packets received, sum(packetBytes)"
scalar scenarioPRJP1.node[22].udp 	sentPk:count 	2624
attr interpolationmode  none
attr source  sentPk
attr title  "packets sent, count"
scalar scenarioPRJP1.node[22].udp 	sentPk:sum(packetBytes) 	1364480
attr interpolationmode  none
attr source  sentPk
attr title  "packets sent, sum(packetBytes)"
scalar scenarioPRJP1.node[22].networkLayer.arp 	failedARPResolution:count 	6
attr title  "ARP failed resolutions, count"
scalar scenarioPRJP1.node[22].networkLayer.arp 	completedARPResolution:count 	539
attr title  "ARP completed resolutions, count"
scalar scenarioPRJP1.node[22].networkLayer.arp 	initiatedARPResolution:count 	79
attr title  "ARP initiated resolutions, count"
scalar scenarioPRJP1.node[22].networkLayer.arp 	sentReply:count 	48
attr title  "ARP replies sent, count"
scalar scenarioPRJP1.node[22].networkLayer.arp 	sentReq:count 	126
attr title  "ARP request sent, count"
scalar scenarioPRJP1.node[22].mobility 	startTime 	2.5
scalar scenarioPRJP1.node[22].mobility 	totalTime 	947.5
scalar scenarioPRJP1.node[22].mobility 	stopTime 	950
scalar scenarioPRJP1.node[22].mobility 	minSpeed 	2.4757673721659e-13
scalar scenarioPRJP1.node[22].mobility 	maxSpeed 	17.959719596645
scalar scenarioPRJP1.node[22].mobility 	totalDistance 	8507.760967143
scalar scenarioPRJP1.node[22].mobility 	totalCO2Emission 	2520.0437665829
scalar scenarioPRJP1.node[22].wlan.mgmt 	dataQueueLen:max 	53
attr interpolationmode  sample-hold
attr title  "data queue length, max"
scalar scenarioPRJP1.node[22].wlan.mgmt 	dataQueueLen:timeavg 	0.00062912456632401
attr interpolationmode  sample-hold
attr title  "data queue length, timeavg"
scalar scenarioPRJP1.node[22].wlan.mgmt 	dropPkByQueue:count 	0
attr interpolationmode  none
attr source  dropPkByQueue
attr title  "packets dropped by queue, count"
scalar scenarioPRJP1.node[22].wlan.mgmt 	dropPkByQueue:sum(packetBytes) 	0
attr interpolationmode  none
attr source  dropPkByQueue
attr title  "packets dropped by queue, sum(packetBytes)"
scalar scenarioPRJP1.node[22].wlan.mac 	"number of received packets" 	5619
scalar scenarioPRJP1.node[22].wlan.mac 	"number of collisions" 	46367
scalar scenarioPRJP1.node[22].wlan.mac 	"number of internal collisions" 	0
scalar scenarioPRJP1.node[22].wlan.mac 	"number of retry for AC 0" 	12829
scalar scenarioPRJP1.node[22].wlan.mac 	"number of retry for AC 1" 	6
scalar scenarioPRJP1.node[22].wlan.mac 	"number of retry for AC 2" 	0
scalar scenarioPRJP1.node[22].wlan.mac 	"number of retry for AC 3" 	0
scalar scenarioPRJP1.node[22].wlan.mac 	"sent and received bits" 	20075360
scalar scenarioPRJP1.node[22].wlan.mac 	"sent packet within AC 0" 	1008
scalar scenarioPRJP1.node[22].wlan.mac 	"sent packet within AC 1" 	0
scalar scenarioPRJP1.node[22].wlan.mac 	"sent packet within AC 2" 	0
scalar scenarioPRJP1.node[22].wlan.mac 	"sent packet within AC 3" 	0
scalar scenarioPRJP1.node[22].wlan.mac 	"sent in TXOP " 	0
scalar scenarioPRJP1.node[22].wlan.mac 	"sentWithoutRetry AC 0" 	786
scalar scenarioPRJP1.node[22].wlan.mac 	"sentWithoutRetry AC 1" 	0
scalar scenarioPRJP1.node[22].wlan.mac 	"sentWithoutRetry AC 2" 	0
scalar scenarioPRJP1.node[22].wlan.mac 	"sentWithoutRetry AC 3" 	0
scalar scenarioPRJP1.node[22].wlan.mac 	"numGivenUp AC 0" 	2045
scalar scenarioPRJP1.node[22].wlan.mac 	"numGivenUp AC 1" 	1
scalar scenarioPRJP1.node[22].wlan.mac 	"numGivenUp AC 2" 	0
scalar scenarioPRJP1.node[22].wlan.mac 	"numGivenUp AC 3" 	0
scalar scenarioPRJP1.node[22].wlan.mac 	"numDropped AC 0" 	8
scalar scenarioPRJP1.node[22].wlan.mac 	"numDropped AC 1" 	0
scalar scenarioPRJP1.node[22].wlan.mac 	"numDropped AC 2" 	0
scalar scenarioPRJP1.node[22].wlan.mac 	"numDropped AC 3" 	0
scalar scenarioPRJP1.node[22].wlan.mac 	rcvdPkFromLL:count 	190390
attr interpolationmode  none
attr source  packetReceivedFromLower
attr title  "packets received from lower layer, count"
scalar scenarioPRJP1.node[22].wlan.mac 	rcvdPkFromLL:sum(packetBytes) 	57599227
attr interpolationmode  none
attr source  packetReceivedFromLower
attr title  "packets received from lower layer, sum(packetBytes)"
scalar scenarioPRJP1.node[22].wlan.mac 	sentDownPk:count 	35978
attr interpolationmode  none
attr source  packetSentToLower
attr title  "packets sent to lower layer, count"
scalar scenarioPRJP1.node[22].wlan.mac 	sentDownPk:sum(packetBytes) 	10938916
attr interpolationmode  none
attr source  packetSentToLower
attr title  "packets sent to lower layer, sum(packetBytes)"
scalar scenarioPRJP1.node[22].wlan.mac 	rcvdPkFromHL:count 	17532
attr interpolationmode  none
[...]
attr interpolationmode  none
attr source  packetSentToUpper
attr title  "packets passed to higher layer, sum(packetBytes)"
statistic scenarioPRJP1.node[57].wlan.radio 	radioChannel:histogram
field count 1
field mean 3
field stddev -nan
field sum 3
field sqrsum 9
field min 3
field max 3
attr interpolationmode  sample-hold
attr source  radioChannelChanged
attr title  "Radio channel, histogram"
bin	-INF	0
bin	2	0
bin	3	1
bin	4	0
scalar scenarioPRJP1.node[57].wlan.radio 	transmissionState:count 	118000
attr interpolationmode  sample-hold
attr source  transmissionStateChanged
attr title  "Radio transmission state, count"
scalar scenarioPRJP1.node[57].wlan.radio 	receptionState:count 	356319
attr interpolationmode  sample-hold
attr source  receptionStateChanged
attr title  "Radio reception state, count"
scalar scenarioPRJP1.node[57].wlan.radio 	radioMode:count 	59002
attr interpolationmode  sample-hold
attr source  radioModeChanged
attr title  "Radio mode, count"
statistic scenarioPRJP1.node[57].wlan.radio 	symbolErrorRate:histogram
field count 0
field mean -nan
field stddev -nan
field sum 0
field sqrsum 0
field min -nan
field max -nan
attr source  symbolErrorRate
attr title  "Symbol error rate, histogram"
bin	-INF	0
bin	-0.5	0
bin	-0.46666666666667	0
bin	-0.43333333333333	0
bin	-0.4	0
bin	-0.36666666666667	0
bin	-0.33333333333333	0
bin	-0.3	0
bin	-0.26666666666667	0
bin	-0.23333333333333	0
bin	-0.2	0
bin	-0.16666666666667	0
bin	-0.13333333333333	0
bin	-0.1	0
bin	-0.066666666666667	0
bin	-0.033333333333333	0
bin	0	0
bin	0.033333333333333	0
bin	0.066666666666667	0
bin	0.1	0
bin	0.13333333333333	0
bin	0.16666666666667	0
bin	0.2	0
bin	0.23333333333333	0
bin	0.26666666666667	0
bin	0.3	0
bin	0.33333333333333	0
bin	0.36666666666667	0
bin	0.4	0
bin	0.43333333333333	0
bin	0.46666666666667	0
bin	0.5	0
statistic scenarioPRJP1.node[57].wlan.radio 	bitErrorRate:histogram
field count 0
field mean -nan
field stddev -nan
field sum 0
field sqrsum 0
field min -nan
field max -nan
attr source  bitErrorRate
attr title  "Bit error rate, histogram"
bin	-INF	0
bin	-0.5	0
bin	-0.46666666666667	0
bin	-0.43333333333333	0
bin	-0.4	0
bin	-0.36666666666667	0
bin	-0.33333333333333	0
bin	-0.3	0
bin	-0.26666666666667	0
bin	-0.23333333333333	0
bin	-0.2	0
bin	-0.16666666666667	0
bin	-0.13333333333333	0
bin	-0.1	0
bin	-0.066666666666667	0
bin	-0.033333333333333	0
bin	0	0
bin	0.033333333333333	0
bin	0.066666666666667	0
bin	0.1	0
bin	0.13333333333333	0
bin	0.16666666666667	0
bin	0.2	0
bin	0.23333333333333	0
bin	0.26666666666667	0
bin	0.3	0
bin	0.33333333333333	0
bin	0.36666666666667	0
bin	0.4	0
bin	0.43333333333333	0
bin	0.46666666666667	0
bin	0.5	0
statistic scenarioPRJP1.node[57].wlan.radio 	packetErrorRate:histogram
field count 145389
field mean 0.15423296017182
field stddev 0.35379641205346
field sum 22423.775846421
field sqrsum 21656.977696057
field min 0
field max 1
attr source  packetErrorRate
attr title  "Packet error rate, histogram"
bin	-INF	24875
bin	-2.0463630789891e-10	0
bin	-1.7735146684572e-10	0
bin	-1.5006662579253e-10	0
bin	-1.2278178473935e-10	0
bin	-9.5496943686157e-11	0
bin	-6.821210263297e-11	0
bin	-4.0927261579782e-11	0
bin	-1.3642420526594e-11	101959
bin	1.3642420526594e-11	635
bin	4.0927261579782e-11	304
bin	6.821210263297e-11	161
bin	9.5496943686157e-11	163
bin	1.2278178473935e-10	113
bin	1.5006662579253e-10	102
bin	1.7735146684572e-10	76
bin	2.0463630789891e-10	71
bin	2.319211489521e-10	69
bin	2.5920599000528e-10	40
bin	2.8649083105847e-10	49
bin	3.1377567211166e-10	45
bin	3.4106051316485e-10	44
bin	3.6834535421804e-10	37
bin	3.9563019527122e-10	31
bin	4.2291503632441e-10	35
bin	4.501998773776e-10	32
bin	4.7748471843079e-10	29
bin	5.0476955948398e-10	23
bin	5.3205440053716e-10	20
bin	5.5933924159035e-10	26
bin	5.8662408264354e-10	23
bin	6.1390892369673e-10	16427
statistic scenarioPRJP1.node[57].wlan.radio 	minSNIR:histogram
field count 145389
field mean 5789.5631829799
field stddev 43116.417317999
field sum 841738801.61027
field sqrsum 2.7515329098639e+14
field min 0.00017043631766378
field max 753239.71923443
attr source  minSNIR
attr title  "Min SNIR, histogram"
bin	-INF	0
bin	-203377.77621625	0
bin	-176259.70880619	0
bin	-149141.64139613	0
bin	-122023.57398607	0
bin	-94905.506576013	0
bin	-67787.439165953	0
bin	-40669.371755893	0
bin	-13551.304345832	138778
bin	13566.763064228	3089
bin	40684.830474288	1075
bin	67802.897884348	478
bin	94920.965294408	335
bin	122039.03270447	302
bin	149157.10011453	124
bin	176275.16752459	321
bin	203393.23493465	94
bin	230511.30234471	63
bin	257629.36975477	38
bin	284747.43716483	66
bin	311865.50457489	52
bin	338983.57198495	54
bin	366101.63939501	45
bin	393219.70680507	84
bin	420337.77421513	21
bin	447455.84162519	7
bin	474573.90903525	16
bin	501691.97644531	7
bin	528810.04385537	5
bin	555928.11126543	13
bin	583046.17867549	5
bin	610164.24608555	317
scalar scenarioPRJP1.node[57].lo0.lo 	droppedPkBitError:count 	0
attr interpolationmode  none
attr source  dropPkBitError
attr title  "packets dropped/bit error, count"
scalar scenarioPRJP1.node[57].lo0.lo 	droppedPkBitError:sum(packetBytes) 	0
attr interpolationmode  none
attr source  dropPkBitError
attr title  "packets dropped/bit error, sum(packetBytes)"
scalar scenarioPRJP1.node[57].lo0.lo 	rcvdPkFromHL:count 	0
attr interpolationmode  none
attr source  packetReceivedFromUpper
attr title  "packets received from higher layer, count"
scalar scenarioPRJP1.node[57].lo0.lo 	rcvdPkFromHL:sum(packetBytes) 	0
attr interpolationmode  none
attr source  packetReceivedFromUpper
attr title  "packets received from higher layer, sum(packetBytes)"
scalar scenarioPRJP1.node[57].lo0.lo 	passedUpPk:count 	0
attr interpolationmode  none
attr source  packetSentToUpper
attr title  "packets passed to higher layer, count"
scalar scenarioPRJP1.node[57].lo0.lo 	passedUpPk:sum(packetBytes) 	0
attr interpolationmode  none
attr source  packetSentToUpper
attr title  "packets passed to higher layer, sum(packetBytes)"
scalar scenarioPRJP1.node[71].app 	"Total sent" 	2608
scalar scenarioPRJP1.node[71].app 	"Total received" 	497
scalar scenarioPRJP1.node[71].app 	"Total deleted" 	109
scalar scenarioPRJP1.node[71].app 	dropPk:count 	109
attr interpolationmode  none
attr source  dropPk
attr title  "packets dropped, count"
scalar scenarioPRJP1.node[71].app 	dropPk:sum(packetBytes) 	55808
attr interpolationmode  none
attr source  dropPk
attr title  "packets dropped, sum(packetBytes)"
scalar scenarioPRJP1.node[71].app 	outOfOrderPk:count 	1
attr interpolationmode  none
attr source  outOfOrderPk
attr title  "packets received out of order, count"
scalar scenarioPRJP1.node[71].app 	outOfOrderPk:sum(packetBytes) 	512
attr interpolationmode  none
attr source  outOfOrderPk
attr title  "packets received out of order, sum(packetBytes)"
scalar scenarioPRJP1.node[71].app 	rcvdPk:count 	497
attr interpolationmode  none
attr source  rcvdPk
attr title  "packets received, count"
scalar scenarioPRJP1.node[71].app 	rcvdPk:sum(packetBytes) 	254464
attr interpolationmode  none
attr source  rcvdPk
attr title  "packets received, sum(packetBytes)"
statistic scenarioPRJP1.node[71].app 	endToEndDelay:histogram
field count 497
field mean 5.431367637998
field stddev 5.9825410122468
field sum 2699.389716085
field sqrsum 32413.613240044
field min 0.000945011007
field max 19.817009871846
attr interpolationmode  none
attr source  messageAge(rcvdPk)
attr title  "delay, histogram"
attr unit  s
bin	-INF	0
bin	-9.085098810554	0
bin	-7.8736263010125	0
bin	-6.6621537914711	0
bin	-5.4506812819296	0
bin	-4.2392087723881	0
bin	-3.0277362628467	0
bin	-1.8162637533052	0
bin	-0.60479124376373	197
bin	0.60668126577773	23
bin	1.8181537753192	27
bin	3.0296262848607	17
bin	4.2410987944021	28
bin	5.4525713039436	24
bin	6.6640438134851	25
bin	7.8755163230265	17
bin	9.086988832568	16
bin	10.298461342109	18
bin	11.509933851651	17
bin	12.721406361192	21
bin	13.932878870734	22
bin	15.144351380275	18
bin	16.355823889817	8
bin	17.567296399358	13
bin	18.7787689089	6
bin	19.990241418441	0
bin	21.201713927983	0
bin	22.413186437524	0
bin	23.624658947066	0
bin	24.836131456607	0
bin	26.047603966149	0
bin	27.25907647569	0
scalar scenarioPRJP1.node[71].app 	sentPk:count 	2608
attr interpolationmode  none
attr source  sentPk
attr title  "packets sent, count"
scalar scenarioPRJP1.node[71].app 	sentPk:sum(packetBytes) 	1335296
attr interpolationmode  none
attr source  sentPk
attr title  "packets sent, sum(packetBytes)"
scalar scenarioPRJP1.node[71].udp 	droppedPkBadChecksum:count 	0
attr interpolationmode  none
attr title  "packets dropped (checksum error), count"
scalar scenarioPRJP1.node[71].udp 	droppedPkWrongPort:count 	0
attr interpolationmode  none
attr title  "packets dropped (wrong port), count"
scalar scenarioPRJP1.node[71].udp 	passedUpPk:count 	607
attr interpolationmode  none
attr title  "packets passed up, count"
scalar scenarioPRJP1.node[71].udp 	rcvdPk:count 	607
attr interpolationmode  none
attr source  rcvdPk
attr title  "packets received, count"
scalar scenarioPRJP1.node[71].udp 	rcvdPk:sum(packetBytes) 	315640
attr interpolationmode  none
attr source  rcvdPk
attr title  "packets received, sum(packetBytes)"
scalar scenarioPRJP1.node[71].udp 	sentPk:count 	2608
attr interpolationmode  none
attr source  sentPk
attr title  "packets sent, count"
scalar scenarioPRJP1.node[71].udp 	sentPk:sum(packetBytes) 	1356160
attr interpolationmode  none
attr source  sentPk
attr title  "packets sent, sum(packetBytes)"
scalar scenarioPRJP1.node[71].networkLayer.arp 	failedARPResolution:count 	3
attr title  "ARP failed resolutions, count"
scalar scenarioPRJP1.node[71].networkLayer.arp 	completedARPResolution:count 	458
attr title  "ARP completed resolutions, count"
scalar scenarioPRJP1.node[71].networkLayer.arp 	initiatedARPResolution:count 	69
attr title  "ARP initiated resolutions, count"
scalar scenarioPRJP1.node[71].networkLayer.arp 	sentReply:count 	45
attr title  "ARP replies sent, count"
scalar scenarioPRJP1.node[71].networkLayer.arp 	sentReq:count 	107
attr title  "ARP request sent, count"
scalar scenarioPRJP1.node[71].mobility 	startTime 	7.3
scalar scenarioPRJP1.node[71].mobility 	totalTime 	942.7
scalar scenarioPRJP1.node[71].mobility 	stopTime 	950
scalar scenarioPRJP1.node[71].mobility 	minSpeed 	2.4754612459142e-13
scalar scenarioPRJP1.node[71].mobility 	maxSpeed 	21.67195522378
scalar scenarioPRJP1.node[71].mobility 	totalDistance 	9336.5245142622
scalar scenarioPRJP1.node[71].mobility 	totalCO2Emission 	2802.251870097
scalar scenarioPRJP1.node[71].wlan.mgmt 	dataQueueLen:max 	43
attr interpolationmode  sample-hold
attr title  "data queue length, max"
scalar scenarioPRJP1.node[71].wlan.mgmt 	dataQueueLen:timeavg 	0
attr interpolationmode  sample-hold
attr title  "data queue length, timeavg"
scalar scenarioPRJP1.node[71].wlan.mgmt 	dropPkByQueue:count 	0
attr interpolationmode  none
attr source  dropPkByQueue
attr title  "packets dropped by queue, count"
scalar scenarioPRJP1.node[71].wlan.mgmt 	dropPkByQueue:sum(packetBytes) 	0
attr interpolationmode  none
attr source  dropPkByQueue
attr title  "packets dropped by queue, sum(packetBytes)"
scalar scenarioPRJP1.node[71].wlan.mac 	"number of received packets" 	6167
scalar scenarioPRJP1.node[71].wlan.mac 	"number of collisions" 	33350
scalar scenarioPRJP1.node[71].wlan.mac 	"number of internal collisions" 	1
scalar scenarioPRJP1.node[71].wlan.mac 	"number of retry for AC 0" 	11488
scalar scenarioPRJP1.node[71].wlan.mac 	"number of retry for AC 1" 	36
scalar scenarioPRJP1.node[71].wlan.mac 	"number of retry for AC 2" 	0
scalar scenarioPRJP1.node[71].wlan.mac 	"number of retry for AC 3" 	0
scalar scenarioPRJP1.node[71].wlan.mac 	"sent and received bits" 	19486152
scalar scenarioPRJP1.node[71].wlan.mac 	"sent packet within AC 0" 	1034
scalar scenarioPRJP1.node[71].wlan.mac 	"sent packet within AC 1" 	4
scalar scenarioPRJP1.node[71].wlan.mac 	"sent packet within AC 2" 	0
scalar scenarioPRJP1.node[71].wlan.mac 	"sent packet within AC 3" 	0
scalar scenarioPRJP1.node[71].wlan.mac 	"sent in TXOP " 	0
scalar scenarioPRJP1.node[71].wlan.mac 	"sentWithoutRetry AC 0" 	818
scalar scenarioPRJP1.node[71].wlan.mac 	"sentWithoutRetry AC 1" 	4
scalar scenarioPRJP1.node[71].wlan.mac 	"sentWithoutRetry AC 2" 	0
scalar scenarioPRJP1.node[71].wlan.mac 	"sentWithoutRetry AC 3" 	0
scalar scenarioPRJP1.node[71].wlan.mac 	"numGivenUp AC 0" 	1827
scalar scenarioPRJP1.node[71].wlan.mac 	"numGivenUp AC 1" 	6
scalar scenarioPRJP1.node[71].wlan.mac 	"numGivenUp AC 2" 	0
scalar scenarioPRJP1.node[71].wlan.mac 	"numGivenUp AC 3" 	0
scalar scenarioPRJP1.node[71].wlan.mac 	"numDropped AC 0" 	0
scalar scenarioPRJP1.node[71].wlan.mac 	"numDropped AC 1" 	0
scalar scenarioPRJP1.node[71].wlan.mac 	"numDropped AC 2" 	0
scalar scenarioPRJP1.node[71].wlan.mac 	"numDropped AC 3" 	0
scalar scenarioPRJP1.node[71].wlan.mac 	rcvdPkFromLL:count 	152974
attr interpolationmode  none
attr source  packetReceivedFromLower
attr title  "packets received from lower layer, count"
scalar scenarioPRJP1.node[71].wlan.mac 	rcvdPkFromLL:sum(packetBytes) 	45958126
attr interpolationmode  none
attr source  packetReceivedFromLower
attr title  "packets received from lower layer, sum(packetBytes)"
scalar scenarioPRJP1.node[71].wlan.mac 	sentDownPk:count 	34409
attr interpolationmode  none
attr source  packetSentToLower
attr title  "packets sent to lower layer, count"
scalar scenarioPRJP1.node[71].wlan.mac 	sentDownPk:sum(packetBytes) 	9992502
attr interpolationmode  none
attr source  packetSentToLower
attr title  "packets sent to lower layer, sum(packetBytes)"
scalar scenarioPRJP1.node[71].wlan.mac 	rcvdPkFromHL:count 	16719
attr interpolationmode  none
attr source  packetReceivedFromUpper
attr title  "packets received from higher layer, count"
scalar scenarioPRJP1.node[71].wlan.mac 	rcvdPkFromHL:sum(packetBytes) 	3461138
attr interpolationmode  none
attr source  packetReceivedFromUpper
attr title  "packets received from higher layer, sum(packetBytes)"
scalar scenarioPRJP1.node[71].wlan.mac 	passedUpPk:count 	49139
attr interpolationmode  none
attr source  packetSentToUpper
attr title  "packets passed to higher layer, count"
scalar scenarioPRJP1.node[71].wlan.mac 	passedUpPk:sum(packetBytes) 	7574412
attr interpolationmode  none
attr source  packetSentToUpper
attr title  "packets passed to higher layer, sum(packetBytes)"
statistic scenarioPRJP1.node[71].wlan.radio 	radioChannel:histogram
field count 1
field mean 3
field stddev -nan
field sum 3
field sqrsum 9
field min 3
field max 3
attr interpolationmode  sample-hold
attr source  radioChannelChanged
attr title  "Radio channel, histogram"
bin	-INF	0
bin	2	0
bin	3	1
bin	4	0
scalar scenarioPRJP1.node[71].wlan.radio 	transmissionState:count 	137634
attr interpolationmode  sample-hold
attr source  transmissionStateChanged
attr title  "Radio transmission state, count"
scalar scenarioPRJP1.node[71].wlan.radio 	receptionState:count 	381873
attr interpolationmode  sample-hold
attr source  receptionStateChanged
attr title  "Radio reception state, count"
scalar scenarioPRJP1.node[71].wlan.radio 	radioMode:count 	68819
attr interpolationmode  sample-hold
attr source  radioModeChanged
attr title  "Radio mode, count"
statistic scenarioPRJP1.node[71].wlan.radio 	symbolErrorRate:histogram
field count 0
field mean -nan
field stddev -nan
field sum 0
field sqrsum 0
field min -nan
field max -nan
attr source  symbolErrorRate
attr title  "Symbol error rate, histogram"
bin	-INF	0
bin	-0.5	0
bin	-0.46666666666667	0
bin	-0.43333333333333	0
bin	-0.4	0
bin	-0.36666666666667	0
bin	-0.33333333333333	0
bin	-0.3	0
bin	-0.26666666666667	0
bin	-0.23333333333333	0
bin	-0.2	0
bin	-0.16666666666667	0
bin	-0.13333333333333	0
bin	-0.1	0
bin	-0.066666666666667	0
bin	-0.033333333333333	0
bin	0	0
bin	0.033333333333333	0
bin	0.066666666666667	0
bin	0.1	0
bin	0.13333333333333	0
bin	0.16666666666667	0
bin	0.2	0
bin	0.23333333333333	0
bin	0.26666666666667	0
bin	0.3	0
bin	0.33333333333333	0
bin	0.36666666666667	0
bin	0.4	0
bin	0.43333333333333	0
bin	0.46666666666667	0
bin	0.5	0
statistic scenarioPRJP1.node[71].wlan.radio 	bitErrorRate:histogram
field count 0
field mean -nan
field stddev -nan
field sum 0
field sqrsum 0
field min -nan
field max -nan
attr source  bitErrorRate
attr title  "Bit error rate, histogram"
bin	-INF	0
bin	-0.5	0
bin	-0.46666666666667	0
bin	-0.43333333333333	0
bin	-0.4	0
bin	-0.36666666666667	0
bin	-0.33333333333333	0
bin	-0.3	0
bin	-0.26666666666667	0
bin	-0.23333333333333	0
bin	-0.2	0
bin	-0.16666666666667	0
bin	-0.13333333333333	0
bin	-0.1	0
bin	-0.066666666666667	0
bin	-0.033333333333333	0
bin	0	0
bin	0.033333333333333	0
bin	0.066666666666667	0
bin	0.1	0
bin	0.13333333333333	0
bin	0.16666666666667	0
bin	0.2	0
bin	0.23333333333333	0
bin	0.26666666666667	0
bin	0.3	0
bin	0.33333333333333	0
bin	0.36666666666667	0
bin	0.4	0
bin	0.43333333333333	0
bin	0.46666666666667	0
bin	0.5	0
statistic scenarioPRJP1.node[71].wlan.radio 	packetErrorRate:histogram
field count 152974
field mean 0.19924290552085
field stddev 0.38903482544218
field sum 30478.984229146
field sqrsum 29224.893573807
field min 0
field max 1
attr source  packetErrorRate
attr title  "Packet error rate, histogram"
bin	-INF	0
bin	-0.5	0
bin	-0.46666666666667	0
bin	-0.43333333333333	0
bin	-0.4	0
bin	-0.36666666666667	0
bin	-0.33333333333333	0
bin	-0.3	0
bin	-0.26666666666667	0
bin	-0.23333333333333	0
bin	-0.2	0
bin	-0.16666666666667	0
bin	-0.13333333333333	0
bin	-0.1	0
bin	-0.066666666666667	0
bin	-0.033333333333333	0
bin	0	117285
bin	0.033333333333333	1336
bin	0.066666666666667	810
bin	0.1	548
bin	0.13333333333333	468
bin	0.16666666666667	359
bin	0.2	332
bin	0.23333333333333	327
bin	0.26666666666667	259
bin	0.3	230
bin	0.33333333333333	232
bin	0.36666666666667	200
bin	0.4	205
bin	0.43333333333333	151
bin	0.46666666666667	172
bin	0.5	30060
statistic scenarioPRJP1.node[71].wlan.radio 	minSNIR:histogram
field count 152974
field mean 4921.2662036833
field stddev 50757.80393672
field sum 752825776.24225
field sqrsum 3.9781755752726e+14
field min 0.00018051191286463
field max 4623254.4013762
attr source  minSNIR
attr title  "Min SNIR, histogram"
bin	-INF	0
bin	-33364.83910763	0
bin	-28914.407654097	0
bin	-24463.976200564	0
bin	-20013.544747032	0
bin	-15563.113293499	0
bin	-11112.681839966	0
bin	-6662.2503864334	0
bin	-2211.8189329007	139945
bin	2238.612520632	5103
bin	6689.0439741647	2216
bin	11139.475427697	1430
bin	15589.90688123	797
bin	20040.338334763	421
bin	24490.769788296	264
bin	28941.201241828	154
bin	33391.632695361	148
bin	37842.064148894	138
bin	42292.495602426	107
bin	46742.927055959	114
bin	51193.358509492	90
bin	55643.789963025	72
bin	60094.221416557	102
bin	64544.65287009	72
bin	68995.084323623	52
bin	73445.515777155	65
bin	77895.947230688	51
bin	82346.378684221	59
bin	86796.810137753	30
bin	91247.241591286	51
bin	95697.673044819	46
bin	100148.10449835	1447
scalar scenarioPRJP1.node[71].lo0.lo 	droppedPkBitError:count 	0
attr interpolationmode  none
attr source  dropPkBitError
attr title  "packets dropped/bit error, count"
scalar scenarioPRJP1.node[71].lo0.lo 	droppedPkBitError:sum(packetBytes) 	0
attr interpolationmode  none
attr source  dropPkBitError
attr title  "packets dropped/bit error, sum(packetBytes)"
scalar scenarioPRJP1.node[71].lo0.lo 	rcvdPkFromHL:count 	0
attr interpolationmode  none
attr source  packetReceivedFromUpper
attr title  "packets received from higher layer, count"
scalar scenarioPRJP1.node[71].lo0.lo 	rcvdPkFromHL:sum(packetBytes) 	0
attr interpolationmode  none
attr source  packetReceivedFromUpper
attr title  "packets received from higher layer, sum(packetBytes)"
scalar scenarioPRJP1.node[71].lo0.lo 	passedUpPk:count 	0
attr interpolationmode  none
attr source  packetSentToUpper
attr title  "packets passed to higher layer, count"
scalar scenarioPRJP1.node[71].lo0.lo 	passedUpPk:sum(packetBytes) 	0
attr interpolationmode  none
attr source  packetSentToUpper
attr title  "packets passed to higher layer, sum(packetBytes)"
