version 2
run AODVRouting-FS-75n-23-20150617-13:40:45-10684
attr configname AODVRouting-FS-75n
attr datetime 20150617-13:40:45
attr experiment AODVRouting-FS-75n
attr inifile omnetpp.ini
attr iterationvars ""
attr iterationvars2 $repetition=23
attr measurement ""
attr network Prj_Part1_propag.scenarioPRJP1
attr processid 10684
attr repetition 23
attr replication #23
attr resultdir results
attr runnumber 23
attr seedset 23

scalar scenarioPRJP1.node[67].app 	"Total sent" 	4591
scalar scenarioPRJP1.node[67].app 	"Total received" 	355
scalar scenarioPRJP1.node[67].app 	"Total deleted" 	10
scalar scenarioPRJP1.node[67].app 	dropPk:count 	10
attr interpolationmode  none
attr source  dropPk
attr title  "packets dropped, count"
scalar scenarioPRJP1.node[67].app 	dropPk:sum(packetBytes) 	5120
attr interpolationmode  none
attr source  dropPk
attr title  "packets dropped, sum(packetBytes)"
scalar scenarioPRJP1.node[67].app 	outOfOrderPk:count 	1
attr interpolationmode  none
attr source  outOfOrderPk
attr title  "packets received out of order, count"
scalar scenarioPRJP1.node[67].app 	outOfOrderPk:sum(packetBytes) 	512
attr interpolationmode  none
attr source  outOfOrderPk
attr title  "packets received out of order, sum(packetBytes)"
scalar scenarioPRJP1.node[67].app 	rcvdPk:count 	355
attr interpolationmode  none
attr source  rcvdPk
attr title  "packets received, count"
scalar scenarioPRJP1.node[67].app 	rcvdPk:sum(packetBytes) 	181760
attr interpolationmode  none
attr source  rcvdPk
attr title  "packets received, sum(packetBytes)"
statistic scenarioPRJP1.node[67].app 	endToEndDelay:histogram
field count 355
field mean 0.18407753456123
field stddev 1.4677158851004
field sum 65.347524769238
field sqrsum 774.61224270836
field min 0.000891025969
field max 18.822970412354
attr interpolationmode  none
attr source  messageAge(rcvdPk)
attr title  "delay, histogram"
attr unit  s
bin	-INF	0
bin	-6.8087156451255	0
bin	-5.9007680889796	0
bin	-4.9928205328336	0
bin	-4.0848729766877	0
bin	-3.1769254205418	0
bin	-2.2689778643958	0
bin	-1.3610303082499	0
bin	-0.45308275210397	342
bin	0.45486480404197	5
bin	1.3628123601879	4
bin	2.2707599163338	0
bin	3.1787074724798	0
bin	4.0866550286257	0
bin	4.9946025847716	1
bin	5.9025501409176	0
bin	6.8104976970635	0
bin	7.7184452532094	0
bin	8.6263928093554	0
bin	9.5343403655013	0
bin	10.442287921647	0
bin	11.350235477793	0
bin	12.258183033939	0
bin	13.166130590085	2
bin	14.074078146231	0
bin	14.982025702377	0
bin	15.889973258523	0
bin	16.797920814669	0
bin	17.705868370815	0
bin	18.613815926961	1
bin	19.521763483107	0
bin	20.429711039252	0
scalar scenarioPRJP1.node[67].app 	sentPk:count 	4591
attr interpolationmode  none
attr source  sentPk
attr title  "packets sent, count"
scalar scenarioPRJP1.node[67].app 	sentPk:sum(packetBytes) 	2350592
attr interpolationmode  none
attr source  sentPk
attr title  "packets sent, sum(packetBytes)"
scalar scenarioPRJP1.node[67].udp 	droppedPkBadChecksum:count 	0
attr interpolationmode  none
attr title  "packets dropped (checksum error), count"
scalar scenarioPRJP1.node[67].udp 	droppedPkWrongPort:count 	0
attr interpolationmode  none
attr title  "packets dropped (wrong port), count"
scalar scenarioPRJP1.node[67].udp 	passedUpPk:count 	366
attr interpolationmode  none
attr title  "packets passed up, count"
scalar scenarioPRJP1.node[67].udp 	rcvdPk:count 	366
attr interpolationmode  none
attr source  rcvdPk
attr title  "packets received, count"
scalar scenarioPRJP1.node[67].udp 	rcvdPk:sum(packetBytes) 	190320
attr interpolationmode  none
attr source  rcvdPk
attr title  "packets received, sum(packetBytes)"
scalar scenarioPRJP1.node[67].udp 	sentPk:count 	4591
attr interpolationmode  none
attr source  sentPk
attr title  "packets sent, count"
scalar scenarioPRJP1.node[67].udp 	sentPk:sum(packetBytes) 	2387320
attr interpolationmode  none
attr source  sentPk
attr title  "packets sent, sum(packetBytes)"
scalar scenarioPRJP1.node[67].networkLayer.arp 	failedARPResolution:count 	1
attr title  "ARP failed resolutions, count"
scalar scenarioPRJP1.node[67].networkLayer.arp 	completedARPResolution:count 	758
attr title  "ARP completed resolutions, count"
scalar scenarioPRJP1.node[67].networkLayer.arp 	initiatedARPResolution:count 	81
attr title  "ARP initiated resolutions, count"
scalar scenarioPRJP1.node[67].networkLayer.arp 	sentReply:count 	65
attr title  "ARP replies sent, count"
scalar scenarioPRJP1.node[67].networkLayer.arp 	sentReq:count 	96
attr title  "ARP request sent, count"
scalar scenarioPRJP1.node[67].mobility 	startTime 	7.3
scalar scenarioPRJP1.node[67].mobility 	totalTime 	1641.2
scalar scenarioPRJP1.node[67].mobility 	stopTime 	1648.6
scalar scenarioPRJP1.node[67].mobility 	minSpeed 	2.4754243134002e-13
scalar scenarioPRJP1.node[67].mobility 	maxSpeed 	19.997791443282
scalar scenarioPRJP1.node[67].mobility 	totalDistance 	18215.464541205
scalar scenarioPRJP1.node[67].mobility 	totalCO2Emission 	4969.7005562103
scalar scenarioPRJP1.node[67].wlan[0].mgmt 	dataQueueLen:max 	8
attr interpolationmode  sample-hold
attr title  "data queue length, max"
scalar scenarioPRJP1.node[67].wlan[0].mgmt 	dataQueueLen:timeavg 	0
attr interpolationmode  sample-hold
attr title  "data queue length, timeavg"
scalar scenarioPRJP1.node[67].wlan[0].mgmt 	dropPkByQueue:count 	0
attr interpolationmode  none
attr source  dropPkByQueue
attr title  "packets dropped by queue, count"
scalar scenarioPRJP1.node[67].wlan[0].mgmt 	dropPkByQueue:sum(packetBytes) 	0
attr interpolationmode  none
attr source  dropPkByQueue
attr title  "packets dropped by queue, sum(packetBytes)"
scalar scenarioPRJP1.node[67].wlan[0].mac 	"number of received packets" 	977
scalar scenarioPRJP1.node[67].wlan[0].mac 	"number of collisions" 	4366
scalar scenarioPRJP1.node[67].wlan[0].mac 	"number of internal collisions" 	0
scalar scenarioPRJP1.node[67].wlan[0].mac 	"number of retry for AC 0" 	797
scalar scenarioPRJP1.node[67].wlan[0].mac 	"number of retry for AC 1" 	0
scalar scenarioPRJP1.node[67].wlan[0].mac 	"number of retry for AC 2" 	0
scalar scenarioPRJP1.node[67].wlan[0].mac 	"number of retry for AC 3" 	0
scalar scenarioPRJP1.node[67].wlan[0].mac 	"sent and received bits" 	4256768
scalar scenarioPRJP1.node[67].wlan[0].mac 	"sent packet within AC 0" 	927
scalar scenarioPRJP1.node[67].wlan[0].mac 	"sent packet within AC 1" 	0
scalar scenarioPRJP1.node[67].wlan[0].mac 	"sent packet within AC 2" 	0
scalar scenarioPRJP1.node[67].wlan[0].mac 	"sent packet within AC 3" 	0
scalar scenarioPRJP1.node[67].wlan[0].mac 	"sent in TXOP " 	0
scalar scenarioPRJP1.node[67].wlan[0].mac 	"sentWithoutRetry AC 0" 	769
scalar scenarioPRJP1.node[67].wlan[0].mac 	"sentWithoutRetry AC 1" 	0
scalar scenarioPRJP1.node[67].wlan[0].mac 	"sentWithoutRetry AC 2" 	0
scalar scenarioPRJP1.node[67].wlan[0].mac 	"sentWithoutRetry AC 3" 	0
scalar scenarioPRJP1.node[67].wlan[0].mac 	"numGivenUp AC 0" 	62
scalar scenarioPRJP1.node[67].wlan[0].mac 	"numGivenUp AC 1" 	0
scalar scenarioPRJP1.node[67].wlan[0].mac 	"numGivenUp AC 2" 	0
scalar scenarioPRJP1.node[67].wlan[0].mac 	"numGivenUp AC 3" 	0
scalar scenarioPRJP1.node[67].wlan[0].mac 	"numDropped AC 0" 	0
scalar scenarioPRJP1.node[67].wlan[0].mac 	"numDropped AC 1" 	0
scalar scenarioPRJP1.node[67].wlan[0].mac 	"numDropped AC 2" 	0
scalar scenarioPRJP1.node[67].wlan[0].mac 	"numDropped AC 3" 	0
scalar scenarioPRJP1.node[67].wlan[0].mac 	rcvdPkFromLL:count 	33943
attr interpolationmode  none
attr source  packetReceivedFromLower
attr title  "packets received from lower layer, count"
scalar scenarioPRJP1.node[67].wlan[0].mac 	rcvdPkFromLL:sum(packetBytes) 	6688202
attr interpolationmode  none
attr source  packetReceivedFromLower
attr title  "packets received from lower layer, sum(packetBytes)"
scalar scenarioPRJP1.node[67].wlan[0].mac 	sentDownPk:count 	5166
attr interpolationmode  none
attr source  packetSentToLower
attr title  "packets sent to lower layer, count"
scalar scenarioPRJP1.node[67].wlan[0].mac 	sentDownPk:sum(packetBytes) 	980998
attr interpolationmode  none
attr source  packetSentToLower
attr title  "packets sent to lower layer, sum(packetBytes)"
scalar scenarioPRJP1.node[67].wlan[0].mac 	rcvdPkFromHL:count 	3392
attr interpolationmode  none
attr source  packetReceivedFromUpper
attr title  "packets received from higher layer, count"
scalar scenarioPRJP1.node[67].wlan[0].mac 	rcvdPkFromHL:sum(packetBytes) 	565840
attr interpolationmode  none
attr source  packetReceivedFromUpper
attr title  "packets received from higher layer, sum(packetBytes)"
scalar scenarioPRJP1.node[67].wlan[0].mac 	passedUpPk:count 	15295
attr interpolationmode  none
attr source  packetSentToUpper
attr title  "packets passed to higher layer, count"
scalar scenarioPRJP1.node[67].wlan[0].mac 	passedUpPk:sum(packetBytes) 	1556500
attr interpolationmode  none
attr source  packetSentToUpper
attr title  "packets passed to higher layer, sum(packetBytes)"
statistic scenarioPRJP1.node[67].wlan[0].radio 	radioChannel:histogram
field count 1
field mean 3
field stddev -nan
field sum 3
field sqrsum 9
field min 3
field max 3
attr interpolationmode  sample-hold
attr source  radioChannelChanged
attr title  "Radio channel, histogram"
bin	-INF	0
bin	2	0
bin	3	1
bin	4	0
scalar scenarioPRJP1.node[67].wlan[0].radio 	transmissionState:count 	20664
attr interpolationmode  sample-hold
attr source  transmissionStateChanged
attr title  "Radio transmission state, count"
scalar scenarioPRJP1.node[67].wlan[0].radio 	receptionState:count 	113928
attr interpolationmode  sample-hold
attr source  receptionStateChanged
attr title  "Radio reception state, count"
scalar scenarioPRJP1.node[67].wlan[0].radio 	radioMode:count 	10334
attr interpolationmode  sample-hold
attr source  radioModeChanged
attr title  "Radio mode, count"
statistic scenarioPRJP1.node[67].wlan[0].radio 	symbolErrorRate:histogram
field count 0
field mean -nan
field stddev -nan
field sum 0
field sqrsum 0
field min -nan
field max -nan
attr source  symbolErrorRate
attr title  "Symbol error rate, histogram"
bin	-INF	0
bin	-0.5	0
bin	-0.46666666666667	0
bin	-0.43333333333333	0
bin	-0.4	0
bin	-0.36666666666667	0
bin	-0.33333333333333	0
bin	-0.3	0
bin	-0.26666666666667	0
bin	-0.23333333333333	0
bin	-0.2	0
bin	-0.16666666666667	0
bin	-0.13333333333333	0
bin	-0.1	0
bin	-0.066666666666667	0
bin	-0.033333333333333	0
bin	-6.9388939039072e-18	0
bin	0.033333333333333	0
bin	0.066666666666667	0
bin	0.1	0
bin	0.13333333333333	0
bin	0.16666666666667	0
bin	0.2	0
bin	0.23333333333333	0
bin	0.26666666666667	0
bin	0.3	0
bin	0.33333333333333	0
bin	0.36666666666667	0
bin	0.4	0
bin	0.43333333333333	0
bin	0.46666666666667	0
bin	0.5	0
statistic scenarioPRJP1.node[67].wlan[0].radio 	bitErrorRate:histogram
field count 0
field mean -nan
field stddev -nan
field sum 0
field sqrsum 0
field min -nan
field max -nan
attr source  bitErrorRate
attr title  "Bit error rate, histogram"
bin	-INF	0
bin	-0.5	0
bin	-0.46666666666667	0
bin	-0.43333333333333	0
bin	-0.4	0
bin	-0.36666666666667	0
bin	-0.33333333333333	0
bin	-0.3	0
bin	-0.26666666666667	0
bin	-0.23333333333333	0
bin	-0.2	0
bin	-0.16666666666667	0
bin	-0.13333333333333	0
bin	-0.1	0
bin	-0.066666666666667	0
bin	-0.033333333333333	0
bin	-6.9388939039072e-18	0
bin	0.033333333333333	0
bin	0.066666666666667	0
bin	0.1	0
bin	0.13333333333333	0
bin	0.16666666666667	0
bin	0.2	0
bin	0.23333333333333	0
bin	0.26666666666667	0
bin	0.3	0
bin	0.33333333333333	0
bin	0.36666666666667	0
bin	0.4	0
bin	0.43333333333333	0
bin	0.46666666666667	0
bin	0.5	0
statistic scenarioPRJP1.node[67].wlan[0].radio 	packetErrorRate:histogram
field count 33943
field mean 0.11194287112374
field stddev 0.3076601717632
field sum 3799.6768745532
field sqrsum 3638.1193252034
field min 0
field max 1
attr source  packetErrorRate
attr title  "Packet error rate, histogram"
bin	-INF	0
bin	-0.5	0
bin	-0.43333333333333	0
bin	-0.36666666666667	0
bin	-0.3	0
bin	-0.23333333333333	0
bin	-0.16666666666667	0
bin	-0.1	0
bin	-0.033333333333333	29471
bin	0.033333333333333	280
bin	0.1	123
bin	0.16666666666667	100
bin	0.23333333333333	68
bin	0.3	74
bin	0.36666666666667	51
bin	0.43333333333333	31
bin	0.5	31
bin	0.56666666666667	40
bin	0.63333333333333	38
bin	0.7	55
bin	0.76666666666667	62
bin	0.83333333333333	52
bin	0.9	79
bin	0.96666666666667	3388
bin	1.0333333333333	0
bin	1.1	0
bin	1.1666666666667	0
bin	1.2333333333333	0
bin	1.3	0
bin	1.3666666666667	0
bin	1.4333333333333	0
bin	1.5	0
statistic scenarioPRJP1.node[67].wlan[0].radio 	minSNIR:histogram
field count 33943
field mean 39873.968711025
field stddev 273671.10743147
field sum 1353442119.9583
field sqrsum 2.596082899445e+15
field min 0.0049098536504764
field max 3012958.8769377
attr source  minSNIR
attr title  "Min SNIR, histogram"
bin	-INF	0
bin	-1483630.0451564	0
bin	-1285812.6562468	0
bin	-1087995.2673372	0
bin	-890177.87842763	0
bin	-692360.48951805	0
bin	-494543.10060847	0
bin	-296725.71169889	0
bin	-98908.322789305	32654
bin	98909.066120277	522
bin	296726.45502986	101
bin	494543.84393944	155
bin	692361.23284902	170
bin	890178.6217586	22
bin	1087996.0106682	15
bin	1285813.3995778	14
bin	1483630.7884873	12
bin	1681448.1773969	8
bin	1879265.5663065	9
bin	2077082.9552161	9
bin	2274900.3441257	10
bin	2472717.7330353	7
bin	2670535.1219448	10
bin	2868352.5108544	225
bin	3066169.899764	0
bin	3263987.2886736	0
bin	3461804.6775832	0
bin	3659622.0664927	0
bin	3857439.4554023	0
bin	4055256.8443119	0
bin	4253074.2332215	0
bin	4450891.6221311	0
scalar scenarioPRJP1.node[67].lo0.lo 	droppedPkBitError:count 	0
attr interpolationmode  none
attr source  dropPkBitError
attr title  "packets dropped/bit error, count"
scalar scenarioPRJP1.node[67].lo0.lo 	droppedPkBitError:sum(packetBytes) 	0
attr interpolationmode  none
attr source  dropPkBitError
attr title  "packets dropped/bit error, sum(packetBytes)"
scalar scenarioPRJP1.node[67].lo0.lo 	rcvdPkFromHL:count 	0
attr interpolationmode  none
attr source  packetReceivedFromUpper
attr title  "packets received from higher layer, count"
scalar scenarioPRJP1.node[67].lo0.lo 	rcvdPkFromHL:sum(packetBytes) 	0
attr interpolationmode  none
attr source  packetReceivedFromUpper
attr title  "packets received from higher layer, sum(packetBytes)"
scalar scenarioPRJP1.node[67].lo0.lo 	passedUpPk:count 	0
attr interpolationmode  none
attr source  packetSentToUpper
attr title  "packets passed to higher layer, count"
scalar scenarioPRJP1.node[67].lo0.lo 	passedUpPk:sum(packetBytes) 	0
attr interpolationmode  none
attr source  packetSentToUpper
attr title  "packets passed to higher layer, sum(packetBytes)"
scalar scenarioPRJP1.node[55].app 	"Total sent" 	4631
scalar scenarioPRJP1.node[55].app 	"Total received" 	376
scalar scenarioPRJP1.node[55].app 	"Total deleted" 	2
scalar scenarioPRJP1.node[55].app 	dropPk:count 	2
attr interpolationmode  none
attr source  dropPk
attr title  "packets dropped, count"
scalar scenarioPRJP1.node[55].app 	dropPk:sum(packetBytes) 	1024
attr interpolationmode  none
attr source  dropPk
attr title  "packets dropped, sum(packetBytes)"
scalar scenarioPRJP1.node[55].app 	outOfOrderPk:count 	0
attr interpolationmode  none
attr source  outOfOrderPk
attr title  "packets received out of order, count"
scalar scenarioPRJP1.node[55].app 	outOfOrderPk:sum(packetBytes) 	0
attr interpolationmode  none
attr source  outOfOrderPk
attr title  "packets received out of order, sum(packetBytes)"
scalar scenarioPRJP1.node[55].app 	rcvdPk:count 	376
attr interpolationmode  none
attr source  rcvdPk
attr title  "packets received, count"
scalar scenarioPRJP1.node[55].app 	rcvdPk:sum(packetBytes) 	192512
attr interpolationmode  none
attr source  rcvdPk
attr title  "packets received, sum(packetBytes)"
statistic scenarioPRJP1.node[55].app 	endToEndDelay:histogram
field count 376
field mean 0.49919978669072
field stddev 2.3416207719888
field sum 187.69911979571
field sqrsum 2149.8948004926
field min 0.000882985634
field max 17.269728262881
attr interpolationmode  none
attr source  messageAge(rcvdPk)
attr title  "delay, histogram"
attr unit  s
bin	-INF	0
bin	-8.63352759741	0
bin	-7.4822717813971	0
bin	-6.3310159653841	0
bin	-5.1797601493712	0
bin	-4.0285043333583	0
bin	-2.8772485173453	0
bin	-1.7259927013324	0
bin	-0.57473688531947	347
bin	0.57651893069347	11
bin	1.7277747467064	4
bin	2.8790305627193	0
bin	4.0302863787323	1
bin	5.1815421947452	0
bin	6.3327980107581	0
bin	7.4840538267711	2
bin	8.635309642784	1
bin	9.7865654587969	2
bin	10.93782127481	1
bin	12.089077090823	0
bin	13.240332906836	5
bin	14.391588722849	0
bin	15.542844538862	0
bin	16.694100354875	2
bin	17.845356170887	0
bin	18.9966119869	0
bin	20.147867802913	0
bin	21.299123618926	0
bin	22.450379434939	0
bin	23.601635250952	0
bin	24.752891066965	0
bin	25.904146882978	0
scalar scenarioPRJP1.node[55].app 	sentPk:count 	4631
attr interpolationmode  none
attr source  sentPk
attr title  "packets sent, count"
scalar scenarioPRJP1.node[55].app 	sentPk:sum(packetBytes) 	2371072
attr interpolationmode  none
attr source  sentPk
attr title  "packets sent, sum(packetBytes)"
scalar scenarioPRJP1.node[55].udp 	droppedPkBadChecksum:count 	0
attr interpolationmode  none
attr title  "packets dropped (checksum error), count"
scalar scenarioPRJP1.node[55].udp 	droppedPkWrongPort:count 	0
attr interpolationmode  none
attr title  "packets dropped (wrong port), count"
scalar scenarioPRJP1.node[55].udp 	passedUpPk:count 	378
attr interpolationmode  none
attr title  "packets passed up, count"
scalar scenarioPRJP1.node[55].udp 	rcvdPk:count 	378
attr interpolationmode  none
attr source  rcvdPk
attr title  "packets received, count"
scalar scenarioPRJP1.node[55].udp 	rcvdPk:sum(packetBytes) 	196560
attr interpolationmode  none
attr source  rcvdPk
attr title  "packets received, sum(packetBytes)"
scalar scenarioPRJP1.node[55].udp 	sentPk:count 	4631
attr interpolationmode  none
attr source  sentPk
attr title  "packets sent, count"
scalar scenarioPRJP1.node[55].udp 	sentPk:sum(packetBytes) 	2408120
attr interpolationmode  none
attr source  sentPk
attr title  "packets sent, sum(packetBytes)"
scalar scenarioPRJP1.node[55].networkLayer.arp 	failedARPResolution:count 	4
attr title  "ARP failed resolutions, count"
scalar scenarioPRJP1.node[55].networkLayer.arp 	completedARPResolution:count 	793
attr title  "ARP completed resolutions, count"
scalar scenarioPRJP1.node[55].networkLayer.arp 	initiatedARPResolution:count 	78
attr title  "ARP initiated resolutions, count"
scalar scenarioPRJP1.node[55].networkLayer.arp 	sentReply:count 	75
attr title  "ARP replies sent, count"
scalar scenarioPRJP1.node[55].networkLayer.arp 	sentReq:count 	94
attr title  "ARP request sent, count"
scalar scenarioPRJP1.node[55].mobility 	startTime 	4.9
scalar scenarioPRJP1.node[55].mobility 	totalTime 	1652.6
scalar scenarioPRJP1.node[55].mobility 	stopTime 	1657.6
scalar scenarioPRJP1.node[55].mobility 	minSpeed 	2.4757129670576e-13
scalar scenarioPRJP1.node[55].mobility 	maxSpeed 	19.706525891708
scalar scenarioPRJP1.node[55].mobility 	totalDistance 	16723.377228993
scalar scenarioPRJP1.node[55].mobility 	totalCO2Emission 	4771.8294153319
scalar scenarioPRJP1.node[55].wlan[0].mgmt 	dataQueueLen:max 	2
attr interpolationmode  sample-hold
attr title  "data queue length, max"
scalar scenarioPRJP1.node[55].wlan[0].mgmt 	dataQueueLen:timeavg 	0
attr interpolationmode  sample-hold
attr title  "data queue length, timeavg"
scalar scenarioPRJP1.node[55].wlan[0].mgmt 	dropPkByQueue:count 	0
attr interpolationmode  none
attr source  dropPkByQueue
attr title  "packets dropped by queue, count"
scalar scenarioPRJP1.node[55].wlan[0].mgmt 	dropPkByQueue:sum(packetBytes) 	0
attr interpolationmode  none
attr source  dropPkByQueue
attr title  "packets dropped by queue, sum(packetBytes)"
scalar scenarioPRJP1.node[55].wlan[0].mac 	"number of received packets" 	576
scalar scenarioPRJP1.node[55].wlan[0].mac 	"number of collisions" 	3732
scalar scenarioPRJP1.node[55].wlan[0].mac 	"number of internal collisions" 	0
scalar scenarioPRJP1.node[55].wlan[0].mac 	"number of retry for AC 0" 	709
scalar scenarioPRJP1.node[55].wlan[0].mac 	"number of retry for AC 1" 	0
scalar scenarioPRJP1.node[55].wlan[0].mac 	"number of retry for AC 2" 	0
scalar scenarioPRJP1.node[55].wlan[0].mac 	"number of retry for AC 3" 	0
scalar scenarioPRJP1.node[55].wlan[0].mac 	"sent and received bits" 	3822432
scalar scenarioPRJP1.node[55].wlan[0].mac 	"sent packet within AC 0" 	574
scalar scenarioPRJP1.node[55].wlan[0].mac 	"sent packet within AC 1" 	0
scalar scenarioPRJP1.node[55].wlan[0].mac 	"sent packet within AC 2" 	0
scalar scenarioPRJP1.node[55].wlan[0].mac 	"sent packet within AC 3" 	0
scalar scenarioPRJP1.node[55].wlan[0].mac 	"sent in TXOP " 	0
scalar scenarioPRJP1.node[55].wlan[0].mac 	"sentWithoutRetry AC 0" 	459
scalar scenarioPRJP1.node[55].wlan[0].mac 	"sentWithoutRetry AC 1" 	0
scalar scenarioPRJP1.node[55].wlan[0].mac 	"sentWithoutRetry AC 2" 	0
scalar scenarioPRJP1.node[55].wlan[0].mac 	"sentWithoutRetry AC 3" 	0
scalar scenarioPRJP1.node[55].wlan[0].mac 	"numGivenUp AC 0" 	67
scalar scenarioPRJP1.node[55].wlan[0].mac 	"numGivenUp AC 1" 	0
scalar scenarioPRJP1.node[55].wlan[0].mac 	"numGivenUp AC 2" 	0
scalar scenarioPRJP1.node[55].wlan[0].mac 	"numGivenUp AC 3" 	0
scalar scenarioPRJP1.node[55].wlan[0].mac 	"numDropped AC 0" 	0
scalar scenarioPRJP1.node[55].wlan[0].mac 	"numDropped AC 1" 	0
scalar scenarioPRJP1.node[55].wlan[0].mac 	"numDropped AC 2" 	0
scalar scenarioPRJP1.node[55].wlan[0].mac 	"numDropped AC 3" 	0
scalar scenarioPRJP1.node[55].wlan[0].mac 	rcvdPkFromLL:count 	30850
attr interpolationmode  none
attr source  packetReceivedFromLower
attr title  "packets received from lower layer, count"
scalar scenarioPRJP1.node[55].wlan[0].mac 	rcvdPkFromLL:sum(packetBytes) 	6266016
attr interpolationmode  none
attr source  packetReceivedFromLower
attr title  "packets received from lower layer, sum(packetBytes)"
scalar scenarioPRJP1.node[55].wlan[0].mac 	sentDownPk:count 	4322
attr interpolationmode  none
attr source  packetSentToLower
attr title  "packets sent to lower layer, count"
scalar scenarioPRJP1.node[55].wlan[0].mac 	sentDownPk:sum(packetBytes) 	892864
attr interpolationmode  none
attr source  packetSentToLower
attr title  "packets sent to lower layer, sum(packetBytes)"
scalar scenarioPRJP1.node[55].wlan[0].mac 	rcvdPkFromHL:count 	3037
attr interpolationmode  none
attr source  packetReceivedFromUpper
attr title  "packets received from higher layer, count"
scalar scenarioPRJP1.node[55].wlan[0].mac 	rcvdPkFromHL:sum(packetBytes) 	514408
attr interpolationmode  none
attr source  packetReceivedFromUpper
attr title  "packets received from higher layer, sum(packetBytes)"
scalar scenarioPRJP1.node[55].wlan[0].mac 	passedUpPk:count 	15328
attr interpolationmode  none
attr source  packetSentToUpper
attr title  "packets passed to higher layer, count"
scalar scenarioPRJP1.node[55].wlan[0].mac 	passedUpPk:sum(packetBytes) 	1520164
attr interpolationmode  none
attr source  packetSentToUpper
attr title  "packets passed to higher layer, sum(packetBytes)"
statistic scenarioPRJP1.node[55].wlan[0].radio 	radioChannel:histogram
field count 1
field mean 3
field stddev -nan
field sum 3
field sqrsum 9
field min 3
field max 3
attr interpolationmode  sample-hold
attr source  radioChannelChanged
attr title  "Radio channel, histogram"
bin	-INF	0
bin	2	0
bin	3	1
bin	4	0
scalar scenarioPRJP1.node[55].wlan[0].radio 	transmissionState:count 	17288
attr interpolationmode  sample-hold
attr source  transmissionStateChanged
attr title  "Radio transmission state, count"
scalar scenarioPRJP1.node[55].wlan[0].radio 	receptionState:count 	102566
attr interpolationmode  sample-hold
attr source  receptionStateChanged
attr title  "Radio reception state, count"
scalar scenarioPRJP1.node[55].wlan[0].radio 	radioMode:count 	8646
attr interpolationmode  sample-hold
attr source  radioModeChanged
attr title  "Radio mode, count"
statistic scenarioPRJP1.node[55].wlan[0].radio 	symbolErrorRate:histogram
field count 0
field mean -nan
field stddev -nan
field sum 0
field sqrsum 0
field min -nan
field max -nan
attr source  symbolErrorRate
attr title  "Symbol error rate, histogram"
bin	-INF	0
bin	-0.5	0
bin	-0.46666666666667	0
bin	-0.43333333333333	0
bin	-0.4	0
bin	-0.36666666666667	0
bin	-0.33333333333333	0
bin	-0.3	0
bin	-0.26666666666667	0
bin	-0.23333333333333	0
bin	-0.2	0
bin	-0.16666666666667	0
bin	-0.13333333333333	0
bin	-0.1	0
bin	-0.066666666666667	0
bin	-0.033333333333333	0
bin	-6.9388939039072e-18	0
bin	0.033333333333333	0
bin	0.066666666666667	0
bin	0.1	0
bin	0.13333333333333	0
bin	0.16666666666667	0
bin	0.2	0
bin	0.23333333333333	0
bin	0.26666666666667	0
bin	0.3	0
bin	0.33333333333333	0
bin	0.36666666666667	0
bin	0.4	0
bin	0.43333333333333	0
bin	0.46666666666667	0
bin	0.5	0
statistic scenarioPRJP1.node[55].wlan[0].radio 	bitErrorRate:histogram
field count 0
field mean -nan
field stddev -nan
field sum 0
field sqrsum 0
field min -nan
field max -nan
attr source  bitErrorRate
attr title  "Bit error rate, histogram"
bin	-INF	0
bin	-0.5	0
bin	-0.46666666666667	0
bin	-0.43333333333333	0
bin	-0.4	0
bin	-0.36666666666667	0
bin	-0.33333333333333	0
bin	-0.3	0
bin	-0.26666666666667	0
bin	-0.23333333333333	0
bin	-0.2	0
bin	-0.16666666666667	0
bin	-0.13333333333333	0
bin	-0.1	0
bin	-0.066666666666667	0
bin	-0.033333333333333	0
bin	-6.9388939039072e-18	0
bin	0.033333333333333	0
bin	0.066666666666667	0
bin	0.1	0
bin	0.13333333333333	0
bin	0.16666666666667	0
bin	0.2	0
bin	0.23333333333333	0
bin	0.26666666666667	0
bin	0.3	0
bin	0.33333333333333	0
bin	0.36666666666667	0
bin	0.4	0
bin	0.43333333333333	0
bin	0.46666666666667	0
bin	0.5	0
statistic scenarioPRJP1.node[55].wlan[0].radio 	packetErrorRate:histogram
field count 30850
field mean 0.10540676562824
field stddev 0.29938060304235
field sum 3251.7987196311
field sqrsum 3107.7187547612
field min 0
field max 1
attr source  packetErrorRate
attr title  "Packet error rate, histogram"
bin	-INF	0
bin	-0.5	0
bin	-0.43333333333333	0
bin	-0.36666666666667	0
bin	-0.3	0
bin	-0.23333333333333	0
bin	-0.16666666666667	0
bin	-0.1	0
bin	-0.033333333333333	26994
bin	0.033333333333333	251
bin	0.1	113
bin	0.16666666666667	91
bin	0.23333333333333	63
bin	0.3	48
bin	0.36666666666667	41
bin	0.43333333333333	41
bin	0.5	46
bin	0.56666666666667	41
bin	0.63333333333333	45
bin	0.7	36
bin	0.76666666666667	26
bin	0.83333333333333	40
bin	0.9	76
bin	0.96666666666667	2898
bin	1.0333333333333	0
bin	1.1	0
bin	1.1666666666667	0
bin	1.2333333333333	0
bin	1.3	0
bin	1.3666666666667	0
bin	1.4333333333333	0
bin	1.5	0
statistic scenarioPRJP1.node[55].wlan[0].radio 	minSNIR:histogram
field count 30850
field mean 42684.214453591
field stddev 260264.21509157
field sum 1316808015.8933
field sqrsum 2.1458398704085e+15
field min 0.00045021096078542
field max 5620616.8994193
attr source  minSNIR
attr title  "Min SNIR, histogram"
bin	-INF	0
bin	-273623.61060571	0
bin	-237140.2983331	0
bin	-200656.98606049	0
bin	-164173.67378789	0
bin	-127690.36151528	0
bin	-91207.049242674	0
bin	-54723.736970067	0
bin	-18240.42469746	27410
bin	18242.887575147	1049
bin	54726.199847753	710
bin	91209.51212036	238
bin	127692.82439297	153
bin	164176.13666557	223
bin	200659.44893818	50
bin	237142.76121079	52
bin	273626.07348339	30
bin	310109.385756	32
bin	346592.69802861	22
bin	383076.01030121	15
bin	419559.32257382	11
bin	456042.63484643	23
bin	492525.94711903	14
bin	529009.25939164	25
bin	565492.57166425	158
bin	601975.88393685	19
bin	638459.19620946	19
bin	674942.50848207	339
bin	711425.82075467	10
bin	747909.13302728	2
bin	784392.44529989	4
bin	820875.7575725	242
scalar scenarioPRJP1.node[55].lo0.lo 	droppedPkBitError:count 	0
attr interpolationmode  none
attr source  dropPkBitError
attr title  "packets dropped/bit error, count"
scalar scenarioPRJP1.node[55].lo0.lo 	droppedPkBitError:sum(packetBytes) 	0
attr interpolationmode  none
attr source  dropPkBitError
attr title  "packets dropped/bit error, sum(packetBytes)"
scalar scenarioPRJP1.node[55].lo0.lo 	rcvdPkFromHL:count 	0
attr interpolationmode  none
attr source  packetReceivedFromUpper
attr title  "packets received from higher layer, count"
scalar scenarioPRJP1.node[55].lo0.lo 	rcvdPkFromHL:sum(packetBytes) 	0
attr interpolationmode  none
attr source  packetReceivedFromUpper
attr title  "packets received from higher layer, sum(packetBytes)"
scalar scenarioPRJP1.node[55].lo0.lo 	passedUpPk:count 	0
attr interpolationmode  none
attr source  packetSentToUpper
attr title  "packets passed to higher layer, count"
scalar scenarioPRJP1.node[55].lo0.lo 	passedUpPk:sum(packetBytes) 	0
attr interpolationmode  none
attr source  packetSentToUpper
attr title  "packets passed to higher layer, sum(packetBytes)"
scalar scenarioPRJP1.node[57].app 	"Total sent" 	4961
scalar scenarioPRJP1.node[57].app 	"Total received" 	324
scalar scenarioPRJP1.node[57].app 	"Total deleted" 	0
scalar scenarioPRJP1.node[57].app 	dropPk:count 	0
attr interpolationmode  none
attr source  dropPk
attr title  "packets dropped, count"
scalar scenarioPRJP1.node[57].app 	dropPk:sum(packetBytes) 	0
attr interpolationmode  none
attr source  dropPk
attr title  "packets dropped, sum(packetBytes)"
scalar scenarioPRJP1.node[57].app 	outOfOrderPk:count 	0
attr interpolationmode  none
attr source  outOfOrderPk
attr title  "packets received out of order, count"
scalar scenarioPRJP1.node[57].app 	outOfOrderPk:sum(packetBytes) 	0
attr interpolationmode  none
attr source  outOfOrderPk
attr title  "packets received out of order, sum(packetBytes)"
scalar scenarioPRJP1.node[57].app 	rcvdPk:count 	324
attr interpolationmode  none
attr source  rcvdPk
attr title  "packets received, count"
scalar scenarioPRJP1.node[57].app 	rcvdPk:sum(packetBytes) 	165888
attr interpolationmode  none
attr source  rcvdPk
attr title  "packets received, sum(packetBytes)"
statistic scenarioPRJP1.node[57].app 	endToEndDelay:histogram
field count 324
field mean 0.18618070497307
field stddev 1.2684452719554
field sum 60.322548411276
field sqrsum 530.92284535557
field min 0.000891026158
field max 14.656496913735
attr interpolationmode  none
attr source  messageAge(rcvdPk)
attr title  "delay, histogram"
attr unit  s
bin	-INF	0
bin	-7.32691187763	0
bin	-6.3498714869027	0
bin	-5.3728310961753	0
bin	-4.395790705448	0
bin	-3.4187503147207	0
bin	-2.4417099239933	0
bin	-1.464669533266	0
bin	-0.48762914253867	306
bin	0.48941124818867	10
bin	1.466451638916	4
bin	2.4434920296433	0
bin	3.4205324203707	0
bin	4.397572811098	0
bin	5.3746132018253	1
bin	6.3516535925527	0
bin	7.32869398328	0
bin	8.3057343740073	1
bin	9.2827747647347	0
bin	10.259815155462	0
bin	11.236855546189	0
bin	12.213895936917	0
bin	13.190936327644	1
bin	14.167976718371	1
bin	15.145017109099	0
bin	16.122057499826	0
bin	17.099097890553	0
bin	18.076138281281	0
bin	19.053178672008	0
bin	20.030219062735	0
bin	21.007259453463	0
bin	21.98429984419	0
scalar scenarioPRJP1.node[57].app 	sentPk:count 	4961
attr interpolationmode  none
attr source  sentPk
attr title  "packets sent, count"
scalar scenarioPRJP1.node[57].app 	sentPk:sum(packetBytes) 	2540032
attr interpolationmode  none
attr source  sentPk
attr title  "packets sent, sum(packetBytes)"
scalar scenarioPRJP1.node[57].udp 	droppedPkBadChecksum:count 	0
attr interpolationmode  none
attr title  "packets dropped (checksum error), count"
scalar scenarioPRJP1.node[57].udp 	droppedPkWrongPort:count 	0
attr interpolationmode  none
attr title  "packets dropped (wrong port), count"
scalar scenarioPRJP1.node[57].udp 	passedUpPk:count 	324
attr interpolationmode  none
attr title  "packets passed up, count"
scalar scenarioPRJP1.node[57].udp 	rcvdPk:count 	324
attr interpolationmode  none
attr source  rcvdPk
attr title  "packets received, count"
scalar scenarioPRJP1.node[57].udp 	rcvdPk:sum(packetBytes) 	168480
attr interpolationmode  none
attr source  rcvdPk
attr title  "packets received, sum(packetBytes)"
scalar scenarioPRJP1.node[57].udp 	sentPk:count 	4961
attr interpolationmode  none
attr source  sentPk
attr title  "packets sent, count"
scalar scenarioPRJP1.node[57].udp 	sentPk:sum(packetBytes) 	2579720
attr interpolationmode  none
attr source  sentPk
attr title  "packets sent, sum(packetBytes)"
scalar scenarioPRJP1.node[57].networkLayer.arp 	failedARPResolution:count 	5
attr title  "ARP failed resolutions, count"
scalar scenarioPRJP1.node[57].networkLayer.arp 	completedARPResolution:count 	680
attr title  "ARP completed resolutions, count"
scalar scenarioPRJP1.node[57].networkLayer.arp 	initiatedARPResolution:count 	93
attr title  "ARP initiated resolutions, count"
scalar scenarioPRJP1.node[57].networkLayer.arp 	sentReply:count 	71
attr title  "ARP replies sent, count"
scalar scenarioPRJP1.node[57].networkLayer.arp 	sentReq:count 	117
attr title  "ARP request sent, count"
scalar scenarioPRJP1.node[57].mobility 	startTime 	4.9
scalar scenarioPRJP1.node[57].mobility 	totalTime 	1779.1
scalar scenarioPRJP1.node[57].mobility 	stopTime 	1784.1
scalar scenarioPRJP1.node[57].mobility 	minSpeed 	2.4754530072524e-13
scalar scenarioPRJP1.node[57].mobility 	maxSpeed 	21.39766650994
scalar scenarioPRJP1.node[57].mobility 	totalDistance 	18646.730951746
scalar scenarioPRJP1.node[57].mobility 	totalCO2Emission 	5252.9518380891
scalar scenarioPRJP1.node[57].wlan[0].mgmt 	dataQueueLen:max 	3
attr interpolationmode  sample-hold
attr title  "data queue length, max"
scalar scenarioPRJP1.node[57].wlan[0].mgmt 	dataQueueLen:timeavg 	0
attr interpolationmode  sample-hold
attr title  "data queue length, timeavg"
scalar scenarioPRJP1.node[57].wlan[0].mgmt 	dropPkByQueue:count 	0
attr interpolationmode  none
attr source  dropPkByQueue
attr title  "packets dropped by queue, count"
scalar scenarioPRJP1.node[57].wlan[0].mgmt 	dropPkByQueue:sum(packetBytes) 	0
attr interpolationmode  none
attr source  dropPkByQueue
attr title  "packets dropped by queue, sum(packetBytes)"
scalar scenarioPRJP1.node[57].wlan[0].mac 	"number of received packets" 	587
scalar scenarioPRJP1.node[57].wlan[0].mac 	"number of collisions" 	4002
scalar scenarioPRJP1.node[57].wlan[0].mac 	"number of internal collisions" 	0
scalar scenarioPRJP1.node[57].wlan[0].mac 	"number of retry for AC 0" 	655
scalar scenarioPRJP1.node[57].wlan[0].mac 	"number of retry for AC 1" 	0
scalar scenarioPRJP1.node[57].wlan[0].mac 	"number of retry for AC 2" 	0
scalar scenarioPRJP1.node[57].wlan[0].mac 	"number of retry for AC 3" 	0
scalar scenarioPRJP1.node[57].wlan[0].mac 	"sent and received bits" 	4109984
scalar scenarioPRJP1.node[57].wlan[0].mac 	"sent packet within AC 0" 	620
scalar scenarioPRJP1.node[57].wlan[0].mac 	"sent packet within AC 1" 	0
scalar scenarioPRJP1.node[57].wlan[0].mac 	"sent packet within AC 2" 	0
scalar scenarioPRJP1.node[57].wlan[0].mac 	"sent packet within AC 3" 	0
scalar scenarioPRJP1.node[57].wlan[0].mac 	"sent in TXOP " 	0
scalar scenarioPRJP1.node[57].wlan[0].mac 	"sentWithoutRetry AC 0" 	492
scalar scenarioPRJP1.node[57].wlan[0].mac 	"sentWithoutRetry AC 1" 	0
scalar scenarioPRJP1.node[57].wlan[0].mac 	"sentWithoutRetry AC 2" 	0
scalar scenarioPRJP1.node[57].wlan[0].mac 	"sentWithoutRetry AC 3" 	0
scalar scenarioPRJP1.node[57].wlan[0].mac 	"numGivenUp AC 0" 	48
scalar scenarioPRJP1.node[57].wlan[0].mac 	"numGivenUp AC 1" 	0
scalar scenarioPRJP1.node[57].wlan[0].mac 	"numGivenUp AC 2" 	0
scalar scenarioPRJP1.node[57].wlan[0].mac 	"numGivenUp AC 3" 	0
scalar scenarioPRJP1.node[57].wlan[0].mac 	"numDropped AC 0" 	0
scalar scenarioPRJP1.node[57].wlan[0].mac 	"numDropped AC 1" 	0
scalar scenarioPRJP1.node[57].wlan[0].mac 	"numDropped AC 2" 	0
scalar scenarioPRJP1.node[57].wlan[0].mac 	"numDropped AC 3" 	0
scalar scenarioPRJP1.node[57].wlan[0].mac 	rcvdPkFromLL:count 	32178
attr interpolationmode  none
attr source  packetReceivedFromLower
attr title  "packets received from lower layer, count"
scalar scenarioPRJP1.node[57].wlan[0].mac 	rcvdPkFromLL:sum(packetBytes) 	6645614
attr interpolationmode  none
attr source  packetReceivedFromLower
attr title  "packets received from lower layer, sum(packetBytes)"
scalar scenarioPRJP1.node[57].wlan[0].mac 	sentDownPk:count 	4639
attr interpolationmode  none
attr source  packetSentToLower
attr title  "packets sent to lower layer, count"
scalar scenarioPRJP1.node[57].wlan[0].mac 	sentDownPk:sum(packetBytes) 	890158
attr interpolationmode  none
attr source  packetSentToLower
attr title  "packets sent to lower layer, sum(packetBytes)"
scalar scenarioPRJP1.node[57].wlan[0].mac 	rcvdPkFromHL:count 	3397
attr interpolationmode  none
attr source  packetReceivedFromUpper
attr title  "packets received from higher layer, count"
scalar scenarioPRJP1.node[57].wlan[0].mac 	rcvdPkFromHL:sum(packetBytes) 	540392
attr interpolationmode  none
attr source  packetReceivedFromUpper
attr title  "packets received from higher layer, sum(packetBytes)"
scalar scenarioPRJP1.node[57].wlan[0].mac 	passedUpPk:count 	15242
attr interpolationmode  none
attr source  packetSentToUpper
attr title  "packets passed to higher layer, count"
scalar scenarioPRJP1.node[57].wlan[0].mac 	passedUpPk:sum(packetBytes) 	1515056
attr interpolationmode  none
attr source  packetSentToUpper
attr title  "packets passed to higher layer, sum(packetBytes)"
statistic scenarioPRJP1.node[57].wlan[0].radio 	radioChannel:histogram
field count 1
field mean 3
field stddev -nan
field sum 3
field sqrsum 9
field min 3
field max 3
attr interpolationmode  sample-hold
attr source  radioChannelChanged
attr title  "Radio channel, histogram"
bin	-INF	0
bin	2	0
bin	3	1
bin	4	0
scalar scenarioPRJP1.node[57].wlan[0].radio 	transmissionState:count 	18556
attr interpolationmode  sample-hold
attr source  transmissionStateChanged
attr title  "Radio transmission state, count"
scalar scenarioPRJP1.node[57].wlan[0].radio 	receptionState:count 	110120
attr interpolationmode  sample-hold
attr source  receptionStateChanged
attr title  "Radio reception state, count"
scalar scenarioPRJP1.node[57].wlan[0].radio 	radioMode:count 	9280
attr interpolationmode  sample-hold
attr source  radioModeChanged
attr title  "Radio mode, count"
statistic scenarioPRJP1.node[57].wlan[0].radio 	symbolErrorRate:histogram
field count 0
field mean -nan
field stddev -nan
field sum 0
field sqrsum 0
field min -nan
field max -nan
attr source  symbolErrorRate
attr title  "Symbol error rate, histogram"
bin	-INF	0
bin	-0.5	0
bin	-0.46666666666667	0
bin	-0.43333333333333	0
bin	-0.4	0
bin	-0.36666666666667	0
bin	-0.33333333333333	0
bin	-0.3	0
bin	-0.26666666666667	0
bin	-0.23333333333333	0
bin	-0.2	0
bin	-0.16666666666667	0
bin	-0.13333333333333	0
bin	-0.1	0
bin	-0.066666666666667	0
bin	-0.033333333333333	0
bin	-6.9388939039072e-18	0
bin	0.033333333333333	0
bin	0.066666666666667	0
bin	0.1	0
bin	0.13333333333333	0
bin	0.16666666666667	0
bin	0.2	0
bin	0.23333333333333	0
bin	0.26666666666667	0
bin	0.3	0
bin	0.33333333333333	0
bin	0.36666666666667	0
bin	0.4	0
bin	0.43333333333333	0
bin	0.46666666666667	0
bin	0.5	0
statistic scenarioPRJP1.node[57].wlan[0].radio 	bitErrorRate:histogram
field count 0
field mean -nan
field stddev -nan
field sum 0
field sqrsum 0
field min -nan
field max -nan
attr source  bitErrorRate
attr title  "Bit error rate, histogram"
bin	-INF	0
bin	-0.5	0
bin	-0.46666666666667	0
bin	-0.43333333333333	0
bin	-0.4	0
bin	-0.36666666666667	0
bin	-0.33333333333333	0
bin	-0.3	0
bin	-0.26666666666667	0
bin	-0.23333333333333	0
bin	-0.2	0
bin	-0.16666666666667	0
bin	-0.13333333333333	0
bin	-0.1	0
bin	-0.066666666666667	0
bin	-0.033333333333333	0
bin	-6.9388939039072e-18	0
bin	0.033333333333333	0
bin	0.066666666666667	0
bin	0.1	0
bin	0.13333333333333	0
bin	0.16666666666667	0
bin	0.2	0
bin	0.23333333333333	0
bin	0.26666666666667	0
bin	0.3	0
bin	0.33333333333333	0
bin	0.36666666666667	0
bin	0.4	0
bin	0.43333333333333	0
bin	0.46666666666667	0
bin	0.5	0
statistic scenarioPRJP1.node[57].wlan[0].radio 	packetErrorRate:histogram
field count 32178
field mean 0.10740796423389
field stddev 0.30208367692712
field sum 3456.1734731183
field sqrsum 3307.518143465
field min 0
field max 1
attr source  packetErrorRate
attr title  "Packet error rate, histogram"
bin	-INF	0
bin	-0.5	0
bin	-0.43333333333333	0
bin	-0.36666666666667	0
bin	-0.3	0
bin	-0.23333333333333	0
bin	-0.16666666666667	0
bin	-0.1	0
bin	-0.033333333333333	28103
bin	0.033333333333333	253
bin	0.1	128
bin	0.16666666666667	83
bin	0.23333333333333	67
bin	0.3	45
bin	0.36666666666667	52
bin	0.43333333333333	44
bin	0.5	42
bin	0.56666666666667	36
bin	0.63333333333333	44
bin	0.7	29
bin	0.76666666666667	32
bin	0.83333333333333	60
bin	0.9	77
bin	0.96666666666667	3083
bin	1.0333333333333	0
bin	1.1	0
bin	1.1666666666667	0
bin	1.2333333333333	0
bin	1.3	0
bin	1.3666666666667	0
bin	1.4333333333333	0
bin	1.5	0
statistic scenarioPRJP1.node[57].wlan[0].radio 	minSNIR:histogram
field count 32178
field mean 51089.788780126
field stddev 285471.05682539
field sum 1643967223.3669
field sqrsum 2.7062135045218e+15
field min 0.00051497074986113
field max 3012958.8769377
attr source  minSNIR
attr title  "Min SNIR, histogram"
bin	-INF	0
bin	-4630.5317315853	0
bin	-4013.0493668271	0
bin	-3395.5670020689	0
bin	-2778.0846373107	0
bin	-2160.6022725525	0
bin	-1543.1199077943	0
bin	-925.63754303606	0
bin	-308.15517827786	15384
bin	309.32718648035	6709
bin	926.80955123855	1673
bin	1544.2919159968	871
bin	2161.774280755	803
bin	2779.2566455132	546
bin	3396.7390102714	424
bin	4014.2213750296	257
bin	4631.7037397878	253
bin	5249.186104546	209
bin	5866.6684693042	159
bin	6484.1508340624	182
bin	7101.6331988206	120
bin	7719.1155635788	81
bin	8336.597928337	124
bin	8954.0802930952	69
bin	9571.5626578534	76
bin	10189.045022612	84
bin	10806.52738737	58
bin	11424.009752128	78
bin	12041.492116886	69
bin	12658.974481644	66
bin	13276.456846403	57
bin	13893.939211161	3826
scalar scenarioPRJP1.node[57].lo0.lo 	droppedPkBitError:count 	0
attr interpolationmode  none
attr source  dropPkBitError
attr title  "packets dropped/bit error, count"
scalar scenarioPRJP1.node[57].lo0.lo 	droppedPkBitError:sum(packetBytes) 	0
attr interpolationmode  none
attr source  dropPkBitError
attr title  "packets dropped/bit error, sum(packetBytes)"
scalar scenarioPRJP1.node[57].lo0.lo 	rcvdPkFromHL:count 	0
attr interpolationmode  none
attr source  packetReceivedFromUpper
attr title  "packets received from higher layer, count"
scalar scenarioPRJP1.node[57].lo0.lo 	rcvdPkFromHL:sum(packetBytes) 	0
attr interpolationmode  none
attr source  packetReceivedFromUpper
attr title  "packets received from higher layer, sum(packetBytes)"
scalar scenarioPRJP1.node[57].lo0.lo 	passedUpPk:count 	0
attr interpolationmode  none
attr source  packetSentToUpper
attr title  "packets passed to higher layer, count"
scalar scenarioPRJP1.node[57].lo0.lo 	passedUpPk:sum(packetBytes) 	0
attr interpolationmode  none
attr source  packetSentToUpper
attr title  "packets passed to higher layer, sum(packetBytes)"
scalar scenarioPRJP1.node[54].app 	"Total sent" 	5028
scalar scenarioPRJP1.node[54].app 	"Total received" 	423
scalar scenarioPRJP1.node[54].app 	"Total deleted" 	1
scalar scenarioPRJP1.node[54].app 	dropPk:count 	1
attr interpolationmode  none
attr source  dropPk
attr title  "packets dropped, count"
scalar scenarioPRJP1.node[54].app 	dropPk:sum(packetBytes) 	512
attr interpolationmode  none
attr source  dropPk
attr title  "packets dropped, sum(packetBytes)"
scalar scenarioPRJP1.node[54].app 	outOfOrderPk:count 	8
attr interpolationmode  none
attr source  outOfOrderPk
attr title  "packets received out of order, count"
scalar scenarioPRJP1.node[54].app 	outOfOrderPk:sum(packetBytes) 	4096
attr interpolationmode  none
attr source  outOfOrderPk
attr title  "packets received out of order, sum(packetBytes)"
scalar scenarioPRJP1.node[54].app 	rcvdPk:count 	423
attr interpolationmode  none
attr source  rcvdPk
attr title  "packets received, count"
scalar scenarioPRJP1.node[54].app 	rcvdPk:sum(packetBytes) 	216576
attr interpolationmode  none
attr source  rcvdPk
attr title  "packets received, sum(packetBytes)"
statistic scenarioPRJP1.node[54].app 	endToEndDelay:histogram
field count 423
field mean 0.21753951080144
field stddev 1.4569900474957
field sum 92.019213069011
field sqrsum 915.84785396301
field min 0.000891011008
field max 14.611936280965
attr interpolationmode  none
attr source  messageAge(rcvdPk)
attr title  "delay, histogram"
attr unit  s
bin	-INF	0
bin	-7.304631606455	0
bin	-6.3305619225697	0
bin	-5.3564922386843	0
bin	-4.382422554799	0
bin	-3.4083528709137	0
bin	-2.4342831870283	0
bin	-1.460213503143	0
bin	-0.48614381925767	404
bin	0.48792586462767	6
bin	1.461995548513	6
bin	2.4360652323983	1
bin	3.4101349162837	0
bin	4.384204600169	1
bin	5.3582742840543	0
bin	6.3323439679397	0
bin	7.306413651825	0
bin	8.2804833357103	1
bin	9.2545530195957	0
bin	10.228622703481	0
bin	11.202692387366	0
bin	12.176762071252	0
bin	13.150831755137	3
bin	14.124901439022	1
bin	15.098971122908	0
bin	16.073040806793	0
bin	17.047110490678	0
bin	18.021180174564	0
bin	18.995249858449	0
bin	19.969319542334	0
bin	20.94338922622	0
bin	21.917458910105	0
scalar scenarioPRJP1.node[54].app 	sentPk:count 	5028
attr interpolationmode  none
attr source  sentPk
attr title  "packets sent, count"
scalar scenarioPRJP1.node[54].app 	sentPk:sum(packetBytes) 	2574336
attr interpolationmode  none
attr source  sentPk
attr title  "packets sent, sum(packetBytes)"
scalar scenarioPRJP1.node[54].udp 	droppedPkBadChecksum:count 	0
attr interpolationmode  none
attr title  "packets dropped (checksum error), count"
scalar scenarioPRJP1.node[54].udp 	droppedPkWrongPort:count 	0
attr interpolationmode  none
attr title  "packets dropped (wrong port), count"
scalar scenarioPRJP1.node[54].udp 	passedUpPk:count 	432
attr interpolationmode  none
attr title  "packets passed up, count"
scalar scenarioPRJP1.node[54].udp 	rcvdPk:count 	432
attr interpolationmode  none
attr source  rcvdPk
attr title  "packets received, count"
scalar scenarioPRJP1.node[54].udp 	rcvdPk:sum(packetBytes) 	224640
attr interpolationmode  none
attr source  rcvdPk
attr title  "packets received, sum(packetBytes)"
scalar scenarioPRJP1.node[54].udp 	sentPk:count 	5028
attr interpolationmode  none
attr source  sentPk
attr title  "packets sent, count"
scalar scenarioPRJP1.node[54].udp 	sentPk:sum(packetBytes) 	2614560
attr interpolationmode  none
attr source  sentPk
attr title  "packets sent, sum(packetBytes)"
scalar scenarioPRJP1.node[54].networkLayer.arp 	failedARPResolution:count 	6
attr title  "ARP failed resolutions, count"
scalar scenarioPRJP1.node[54].networkLayer.arp 	completedARPResolution:count 	763
attr title  "ARP completed resolutions, count"
scalar scenarioPRJP1.node[54].networkLayer.arp 	initiatedARPResolution:count 	92
attr title  "ARP initiated resolutions, count"
scalar scenarioPRJP1.node[54].networkLayer.arp 	sentReply:count 	94
attr title  "ARP replies sent, count"
scalar scenarioPRJP1.node[54].networkLayer.arp 	sentReq:count 	125
attr title  "ARP request sent, count"
scalar scenarioPRJP1.node[54].mobility 	startTime 	4.9
scalar scenarioPRJP1.node[54].mobility 	totalTime 	1824
scalar scenarioPRJP1.node[54].mobility 	stopTime 	1829
scalar scenarioPRJP1.node[54].mobility 	minSpeed 	2.4754543050172e-13
scalar scenarioPRJP1.node[54].mobility 	maxSpeed 	21.671970486863
scalar scenarioPRJP1.node[54].mobility 	totalDistance 	20810.727161089
scalar scenarioPRJP1.node[54].mobility 	totalCO2Emission 	5899.5229923483
scalar scenarioPRJP1.node[54].wlan[0].mgmt 	dataQueueLen:max 	10
attr interpolationmode  sample-hold
attr title  "data queue length, max"
scalar scenarioPRJP1.node[54].wlan[0].mgmt 	dataQueueLen:timeavg 	0
attr interpolationmode  sample-hold
attr title  "data queue length, timeavg"
scalar scenarioPRJP1.node[54].wlan[0].mgmt 	dropPkByQueue:count 	0
attr interpolationmode  none
attr source  dropPkByQueue
attr title  "packets dropped by queue, count"
scalar scenarioPRJP1.node[54].wlan[0].mgmt 	dropPkByQueue:sum(packetBytes) 	0
attr interpolationmode  none
attr source  dropPkByQueue
attr title  "packets dropped by queue, sum(packetBytes)"
scalar scenarioPRJP1.node[54].wlan[0].mac 	"number of received packets" 	696
scalar scenarioPRJP1.node[54].wlan[0].mac 	"number of collisions" 	3294
scalar scenarioPRJP1.node[54].wlan[0].mac 	"number of internal collisions" 	0
scalar scenarioPRJP1.node[54].wlan[0].mac 	"number of retry for AC 0" 	619
scalar scenarioPRJP1.node[54].wlan[0].mac 	"number of retry for AC 1" 	0
scalar scenarioPRJP1.node[54].wlan[0].mac 	"number of retry for AC 2" 	0
scalar scenarioPRJP1.node[54].wlan[0].mac 	"number of retry for AC 3" 	0
scalar scenarioPRJP1.node[54].wlan[0].mac 	"sent and received bits" 	4290976
scalar scenarioPRJP1.node[54].wlan[0].mac 	"sent packet within AC 0" 	663
scalar scenarioPRJP1.node[54].wlan[0].mac 	"sent packet within AC 1" 	0
scalar scenarioPRJP1.node[54].wlan[0].mac 	"sent packet within AC 2" 	0
scalar scenarioPRJP1.node[54].wlan[0].mac 	"sent packet within AC 3" 	0
scalar scenarioPRJP1.node[54].wlan[0].mac 	"sent in TXOP " 	0
scalar scenarioPRJP1.node[54].wlan[0].mac 	"sentWithoutRetry AC 0" 	538
scalar scenarioPRJP1.node[54].wlan[0].mac 	"sentWithoutRetry AC 1" 	0
scalar scenarioPRJP1.node[54].wlan[0].mac 	"sentWithoutRetry AC 2" 	0
scalar scenarioPRJP1.node[54].wlan[0].mac 	"sentWithoutRetry AC 3" 	0
scalar scenarioPRJP1.node[54].wlan[0].mac 	"numGivenUp AC 0" 	51
scalar scenarioPRJP1.node[54].wlan[0].mac 	"numGivenUp AC 1" 	0
scalar scenarioPRJP1.node[54].wlan[0].mac 	"numGivenUp AC 2" 	0
scalar scenarioPRJP1.node[54].wlan[0].mac 	"numGivenUp AC 3" 	0
scalar scenarioPRJP1.node[54].wlan[0].mac 	"numDropped AC 0" 	0
scalar scenarioPRJP1.node[54].wlan[0].mac 	"numDropped AC 1" 	0
scalar scenarioPRJP1.node[54].wlan[0].mac 	"numDropped AC 2" 	0
scalar scenarioPRJP1.node[54].wlan[0].mac 	"numDropped AC 3" 	0
scalar scenarioPRJP1.node[54].wlan[0].mac 	rcvdPkFromLL:count 	32368
attr interpolationmode  none
attr source  packetReceivedFromLower
attr title  "packets received from lower layer, count"
scalar scenarioPRJP1.node[54].wlan[0].mac 	rcvdPkFromLL:sum(packetBytes) 	6612996
attr interpolationmode  none
attr source  packetReceivedFromLower
attr title  "packets received from lower layer, sum(packetBytes)"
scalar scenarioPRJP1.node[54].wlan[0].mac 	sentDownPk:count 	4662
attr interpolationmode  none
attr source  packetSentToLower
attr title  "packets sent to lower layer, count"
scalar scenarioPRJP1.node[54].wlan[0].mac 	sentDownPk:sum(packetBytes) 	912076
attr interpolationmode  none
attr source  packetSentToLower
attr title  "packets sent to lower layer, sum(packetBytes)"
scalar scenarioPRJP1.node[54].wlan[0].mac 	rcvdPkFromHL:count 	3347
attr interpolationmode  none
attr source  packetReceivedFromUpper
attr title  "packets received from higher layer, count"
scalar scenarioPRJP1.node[54].wlan[0].mac 	rcvdPkFromHL:sum(packetBytes) 	565256
attr interpolationmode  none
attr source  packetReceivedFromUpper
attr title  "packets received from higher layer, sum(packetBytes)"
scalar scenarioPRJP1.node[54].wlan[0].mac 	passedUpPk:count 	16357
attr interpolationmode  none
attr source  packetSentToUpper
attr title  "packets passed to higher layer, count"
scalar scenarioPRJP1.node[54].wlan[0].mac 	passedUpPk:sum(packetBytes) 	1648220
attr interpolationmode  none
attr source  packetSentToUpper
attr title  "packets passed to higher layer, sum(packetBytes)"
statistic scenarioPRJP1.node[54].wlan[0].radio 	radioChannel:histogram
field count 1
field mean 3
field stddev -nan
field sum 3
field sqrsum 9
field min 3
field max 3
attr interpolationmode  sample-hold
attr source  radioChannelChanged
attr title  "Radio channel, histogram"
bin	-INF	0
bin	2	0
bin	3	1
bin	4	0
scalar scenarioPRJP1.node[54].wlan[0].radio 	transmissionState:count 	18648
attr interpolationmode  sample-hold
attr source  transmissionStateChanged
attr title  "Radio transmission state, count"
scalar scenarioPRJP1.node[54].wlan[0].radio 	receptionState:count 	103798
attr interpolationmode  sample-hold
attr source  receptionStateChanged
attr title  "Radio reception state, count"
scalar scenarioPRJP1.node[54].wlan[0].radio 	radioMode:count 	9326
attr interpolationmode  sample-hold
attr source  radioModeChanged
attr title  "Radio mode, count"
statistic scenarioPRJP1.node[54].wlan[0].radio 	symbolErrorRate:histogram
field count 0
field mean -nan
field stddev -nan
field sum 0
field sqrsum 0
field min -nan
field max -nan
attr source  symbolErrorRate
attr title  "Symbol error rate, histogram"
bin	-INF	0
bin	-0.5	0
bin	-0.46666666666667	0
bin	-0.43333333333333	0
bin	-0.4	0
bin	-0.36666666666667	0
bin	-0.33333333333333	0
bin	-0.3	0
bin	-0.26666666666667	0
bin	-0.23333333333333	0
bin	-0.2	0
bin	-0.16666666666667	0
bin	-0.13333333333333	0
bin	-0.1	0
bin	-0.066666666666667	0
bin	-0.033333333333333	0
bin	-6.9388939039072e-18	0
bin	0.033333333333333	0
bin	0.066666666666667	0
bin	0.1	0
bin	0.13333333333333	0
bin	0.16666666666667	0
bin	0.2	0
bin	0.23333333333333	0
bin	0.26666666666667	0
bin	0.3	0
bin	0.33333333333333	0
bin	0.36666666666667	0
bin	0.4	0
bin	0.43333333333333	0
bin	0.46666666666667	0
bin	0.5	0
statistic scenarioPRJP1.node[54].wlan[0].radio 	bitErrorRate:histogram
field count 0
field mean -nan
field stddev -nan
field sum 0
field sqrsum 0
field min -nan
field max -nan
attr source  bitErrorRate
attr title  "Bit error rate, histogram"
bin	-INF	0
bin	-0.5	0
bin	-0.46666666666667	0
bin	-0.43333333333333	0
bin	-0.4	0
bin	-0.36666666666667	0
bin	-0.33333333333333	0
bin	-0.3	0
bin	-0.26666666666667	0
bin	-0.23333333333333	0
bin	-0.2	0
bin	-0.16666666666667	0
bin	-0.13333333333333	0
bin	-0.1	0
bin	-0.066666666666667	0
bin	-0.033333333333333	0
bin	-6.9388939039072e-18	0
bin	0.033333333333333	0
bin	0.066666666666667	0
bin	0.1	0
bin	0.13333333333333	0
bin	0.16666666666667	0
bin	0.2	0
bin	0.23333333333333	0
bin	0.26666666666667	0
bin	0.3	0
bin	0.33333333333333	0
bin	0.36666666666667	0
bin	0.4	0
bin	0.43333333333333	0
bin	0.46666666666667	0
bin	0.5	0
statistic scenarioPRJP1.node[54].wlan[0].radio 	packetErrorRate:histogram
field count 32368
field mean 0.09007375433749
field stddev 0.27882531291666
field sum 2915.5072803959
field sqrsum 2778.936335212
field min 0
field max 1
attr source  packetErrorRate
attr title  "Packet error rate, histogram"
bin	-INF	0
bin	-0.0016742548213253	0
bin	-0.0014510208451486	0
bin	-0.0012277868689719	0
bin	-0.0010045528927952	0
bin	-0.00078131891661849	0
bin	-0.00055808494044178	0
bin	-0.00033485096426507	0
bin	-0.00011161698808836	27770
bin	0.00011161698808836	217
bin	0.00033485096426507	112
bin	0.00055808494044178	53
bin	0.00078131891661849	54
bin	0.0010045528927952	41
bin	0.0012277868689719	34
bin	0.0014510208451486	29
bin	0.0016742548213253	24
bin	0.001897488797502	23
bin	0.0021207227736787	28
bin	0.0023439567498555	16
bin	0.0025671907260322	17
bin	0.0027904247022089	16
bin	0.0030136586783856	11
bin	0.0032368926545623	10
bin	0.003460126630739	9
bin	0.0036833606069157	15
bin	0.0039065945830924	15
bin	0.0041298285592691	8
bin	0.0043530625354459	9
bin	0.0045762965116226	7
bin	0.0047995304877993	8
bin	0.005022764463976	3842
statistic scenarioPRJP1.node[54].wlan[0].radio 	minSNIR:histogram
field count 32368
field mean 66661.737250281
field stddev 386029.03688567
field sum 2157707111.3171
field sqrsum 4.9671156178778e+15
field min 0.0057217186721369
field max 12849998.19013
attr source  minSNIR
attr title  "Min SNIR, histogram"
bin	-INF	0
bin	-817.61491661864	0
bin	-708.00121708079	0
bin	-598.38751754293	0
bin	-488.77381800508	0
bin	-379.16011846722	0
bin	-269.54641892936	0
bin	-159.93271939151	0
bin	-50.319019853652	12292
bin	59.294679684204	1560
bin	168.90837922206	796
bin	278.52207875992	1963
bin	388.13577829777	1755
bin	497.74947783563	1161
bin	607.36317737348	793
bin	716.97687691134	612
bin	826.5905764492	512
bin	936.20427598705	433
bin	1045.8179755249	350
bin	1155.4316750628	342
bin	1265.0453746006	249
bin	1374.6590741385	195
bin	1484.2727736763	191
bin	1593.8864732142	193
bin	1703.500172752	167
bin	1813.1138722899	170
bin	1922.7275718278	148
bin	2032.3412713656	131
bin	2141.9549709035	106
bin	2251.5686704413	148
bin	2361.1823699792	95
bin	2470.796069517	8006
scalar scenarioPRJP1.node[54].lo0.lo 	droppedPkBitError:count 	0
attr interpolationmode  none
attr source  dropPkBitError
attr title  "packets dropped/bit error, count"
scalar scenarioPRJP1.node[54].lo0.lo 	droppedPkBitError:sum(packetBytes) 	0
attr interpolationmode  none
attr source  dropPkBitError
attr title  "packets dropped/bit error, sum(packetBytes)"
scalar scenarioPRJP1.node[54].lo0.lo 	rcvdPkFromHL:count 	0
attr interpolationmode  none
attr source  packetReceivedFromUpper
attr title  "packets received from higher layer, count"
scalar scenarioPRJP1.node[54].lo0.lo 	rcvdPkFromHL:sum(packetBytes) 	0
attr interpolationmode  none
attr source  packetReceivedFromUpper
attr title  "packets received from higher layer, sum(packetBytes)"
scalar scenarioPRJP1.node[54].lo0.lo 	passedUpPk:count 	0
attr interpolationmode  none
attr source  packetSentToUpper
attr title  "packets passed to higher layer, count"
scalar scenarioPRJP1.node[54].lo0.lo 	passedUpPk:sum(packetBytes) 	0
attr interpolationmode  none
attr source  packetSentToUpper
attr title  "packets passed to higher layer, sum(packetBytes)"
scalar scenarioPRJP1.node[34].app 	"Total sent" 	5008
scalar scenarioPRJP1.node[34].app 	"Total received" 	457
scalar scenarioPRJP1.node[34].app 	"Total deleted" 	9
scalar scenarioPRJP1.node[34].app 	dropPk:count 	9
attr interpolationmode  none
attr source  dropPk
attr title  "packets dropped, count"
scalar scenarioPRJP1.node[34].app 	dropPk:sum(packetBytes) 	4608
attr interpolationmode  none
attr source  dropPk
attr title  "packets dropped, sum(packetBytes)"
scalar scenarioPRJP1.node[34].app 	outOfOrderPk:count 	5
attr interpolationmode  none
attr source  outOfOrderPk
attr title  "packets received out of order, count"
scalar scenarioPRJP1.node[34].app 	outOfOrderPk:sum(packetBytes) 	2560
attr interpolationmode  none
attr source  outOfOrderPk
attr title  "packets received out of order, sum(packetBytes)"
scalar scenarioPRJP1.node[34].app 	rcvdPk:count 	457
attr interpolationmode  none
attr source  rcvdPk
attr title  "packets received, count"
scalar scenarioPRJP1.node[34].app 	rcvdPk:sum(packetBytes) 	233984
attr interpolationmode  none
attr source  rcvdPk
attr title  "packets received, sum(packetBytes)"
statistic scenarioPRJP1.node[34].app 	endToEndDelay:histogram
field count 457
field mean 0.1954927883468
field stddev 1.3651892311137
field sum 89.340204274488
field sqrsum 867.33155200254
field min 0.000891024093
field max 17.090366861406
attr interpolationmode  none
attr source  messageAge(rcvdPk)
attr title  "delay, histogram"
attr unit  s
bin	-INF	0
bin	-8.5438053421365	0
bin	-7.4045087997568	0
bin	-6.2652122573772	0
bin	-5.1259157149975	0
bin	-3.9866191726178	0
bin	-2.8473226302382	0
bin	-1.7080260878585	0
bin	-0.56872954547883	433
bin	0.57056699690083	17
bin	1.7098635392805	2
bin	2.8491600816602	0
bin	3.9884566240398	0
bin	5.1277531664195	1
bin	6.2670497087992	0
bin	7.4063462511788	0
bin	8.5456427935585	0
bin	9.6849393359382	0
bin	10.824235878318	0
bin	11.963532420698	1
bin	13.102828963077	2
bin	14.242125505457	0
bin	15.381422047837	0
bin	16.520718590216	1
bin	17.660015132596	0
bin	18.799311674976	0
bin	19.938608217355	0
bin	21.077904759735	0
bin	22.217201302115	0
bin	23.356497844494	0
bin	24.495794386874	0
bin	25.635090929254	0
scalar scenarioPRJP1.node[34].app 	sentPk:count 	5008
attr interpolationmode  none
attr source  sentPk
attr title  "packets sent, count"
scalar scenarioPRJP1.node[34].app 	sentPk:sum(packetBytes) 	2564096
attr interpolationmode  none
attr source  sentPk
attr title  "packets sent, sum(packetBytes)"
scalar scenarioPRJP1.node[34].udp 	droppedPkBadChecksum:count 	0
attr interpolationmode  none
attr title  "packets dropped (checksum error), count"
scalar scenarioPRJP1.node[34].udp 	droppedPkWrongPort:count 	0
attr interpolationmode  none
attr title  "packets dropped (wrong port), count"
scalar scenarioPRJP1.node[34].udp 	passedUpPk:count 	471
attr interpolationmode  none
attr title  "packets passed up, count"
scalar scenarioPRJP1.node[34].udp 	rcvdPk:count 	471
attr interpolationmode  none
attr source  rcvdPk
attr title  "packets received, count"
scalar scenarioPRJP1.node[34].udp 	rcvdPk:sum(packetBytes) 	244920
attr interpolationmode  none
attr source  rcvdPk
attr title  "packets received, sum(packetBytes)"
scalar scenarioPRJP1.node[34].udp 	sentPk:count 	5008
attr interpolationmode  none
attr source  sentPk
attr title  "packets sent, count"
scalar scenarioPRJP1.node[34].udp 	sentPk:sum(packetBytes) 	2604160
attr interpolationmode  none
attr source  sentPk
attr title  "packets sent, sum(packetBytes)"
scalar scenarioPRJP1.node[34].networkLayer.arp 	failedARPResolution:count 	4
attr title  "ARP failed resolutions, count"
scalar scenarioPRJP1.node[34].networkLayer.arp 	completedARPResolution:count 	857
attr title  "ARP completed resolutions, count"
scalar scenarioPRJP1.node[34].networkLayer.arp 	initiatedARPResolution:count 	91
attr title  "ARP initiated resolutions, count"
scalar scenarioPRJP1.node[34].networkLayer.arp 	sentReply:count 	101
attr title  "ARP replies sent, count"
scalar scenarioPRJP1.node[34].networkLayer.arp 	sentReq:count 	114
attr title  "ARP request sent, count"
scalar scenarioPRJP1.node[34].mobility 	startTime 	2.5
scalar scenarioPRJP1.node[34].mobility 	totalTime 	1872.2
scalar scenarioPRJP1.node[34].mobility 	stopTime 	1874.8
scalar scenarioPRJP1.node[34].mobility 	minSpeed 	2.4755010314057e-13
scalar scenarioPRJP1.node[34].mobility 	maxSpeed 	20.655938298951
scalar scenarioPRJP1.node[34].mobility 	totalDistance 	20461.050632974
scalar scenarioPRJP1.node[34].mobility 	totalCO2Emission 	5885.886954149
scalar scenarioPRJP1.node[34].wlan[0].mgmt 	dataQueueLen:max 	5
attr interpolationmode  sample-hold
attr title  "data queue length, max"
scalar scenarioPRJP1.node[34].wlan[0].mgmt 	dataQueueLen:timeavg 	0
attr interpolationmode  sample-hold
attr title  "data queue length, timeavg"
scalar scenarioPRJP1.node[34].wlan[0].mgmt 	dropPkByQueue:count 	0
attr interpolationmode  none
attr source  dropPkByQueue
attr title  "packets dropped by queue, count"
scalar scenarioPRJP1.node[34].wlan[0].mgmt 	dropPkByQueue:sum(packetBytes) 	0
attr interpolationmode  none
attr source  dropPkByQueue
attr title  "packets dropped by queue, sum(packetBytes)"
scalar scenarioPRJP1.node[34].wlan[0].mac 	"number of received packets" 	958
scalar scenarioPRJP1.node[34].wlan[0].mac 	"number of collisions" 	4752
scalar scenarioPRJP1.node[34].wlan[0].mac 	"number of internal collisions" 	0
scalar scenarioPRJP1.node[34].wlan[0].mac 	"number of retry for AC 0" 	1073
scalar scenarioPRJP1.node[34].wlan[0].mac 	"number of retry for AC 1" 	0
scalar scenarioPRJP1.node[34].wlan[0].mac 	"number of retry for AC 2" 	0
scalar scenarioPRJP1.node[34].wlan[0].mac 	"number of retry for AC 3" 	0
scalar scenarioPRJP1.node[34].wlan[0].mac 	"sent and received bits" 	5142624
scalar scenarioPRJP1.node[34].wlan[0].mac 	"sent packet within AC 0" 	889
scalar scenarioPRJP1.node[34].wlan[0].mac 	"sent packet within AC 1" 	0
scalar scenarioPRJP1.node[34].wlan[0].mac 	"sent packet within AC 2" 	0
scalar scenarioPRJP1.node[34].wlan[0].mac 	"sent packet within AC 3" 	0
scalar scenarioPRJP1.node[34].wlan[0].mac 	"sent in TXOP " 	0
scalar scenarioPRJP1.node[34].wlan[0].mac 	"sentWithoutRetry AC 0" 	677
scalar scenarioPRJP1.node[34].wlan[0].mac 	"sentWithoutRetry AC 1" 	0
scalar scenarioPRJP1.node[34].wlan[0].mac 	"sentWithoutRetry AC 2" 	0
scalar scenarioPRJP1.node[34].wlan[0].mac 	"sentWithoutRetry AC 3" 	0
scalar scenarioPRJP1.node[34].wlan[0].mac 	"numGivenUp AC 0" 	82
scalar scenarioPRJP1.node[34].wlan[0].mac 	"numGivenUp AC 1" 	0
scalar scenarioPRJP1.node[34].wlan[0].mac 	"numGivenUp AC 2" 	0
scalar scenarioPRJP1.node[34].wlan[0].mac 	"numGivenUp AC 3" 	0
scalar scenarioPRJP1.node[34].wlan[0].mac 	"numDropped AC 0" 	0
scalar scenarioPRJP1.node[34].wlan[0].mac 	"numDropped AC 1" 	0
scalar scenarioPRJP1.node[34].wlan[0].mac 	"numDropped AC 2" 	0
scalar scenarioPRJP1.node[34].wlan[0].mac 	"numDropped AC 3" 	0
scalar scenarioPRJP1.node[34].wlan[0].mac 	rcvdPkFromLL:count 	36321
attr interpolationmode  none
attr source  packetReceivedFromLower
attr title  "packets received from lower layer, count"
scalar scenarioPRJP1.node[34].wlan[0].mac 	rcvdPkFromLL:sum(packetBytes) 	7535642
attr interpolationmode  none
attr source  packetReceivedFromLower
attr title  "packets received from lower layer, sum(packetBytes)"
scalar scenarioPRJP1.node[34].wlan[0].mac 	sentDownPk:count 	5740
attr interpolationmode  none
attr source  packetSentToLower
attr title  "packets sent to lower layer, count"
scalar scenarioPRJP1.node[34].wlan[0].mac 	sentDownPk:sum(packetBytes) 	1270656
attr interpolationmode  none
attr source  packetSentToLower
attr title  "packets sent to lower layer, sum(packetBytes)"
scalar scenarioPRJP1.node[34].wlan[0].mac 	rcvdPkFromHL:count 	3709
attr interpolationmode  none
attr source  packetReceivedFromUpper
attr title  "packets received from higher layer, count"
scalar scenarioPRJP1.node[34].wlan[0].mac 	rcvdPkFromHL:sum(packetBytes) 	689076
attr interpolationmode  none
attr source  packetReceivedFromUpper
attr title  "packets received from higher layer, sum(packetBytes)"
scalar scenarioPRJP1.node[34].wlan[0].mac 	passedUpPk:count 	17766
attr interpolationmode  none
attr source  packetSentToUpper
attr title  "packets passed to higher layer, count"
scalar scenarioPRJP1.node[34].wlan[0].mac 	passedUpPk:sum(packetBytes) 	1832092
attr interpolationmode  none
attr source  packetSentToUpper
attr title  "packets passed to higher layer, sum(packetBytes)"
statistic scenarioPRJP1.node[34].wlan[0].radio 	radioChannel:histogram
field count 1
field mean 3
field stddev -nan
field sum 3
field sqrsum 9
field min 3
field max 3
attr interpolationmode  sample-hold
attr source  radioChannelChanged
attr title  "Radio channel, histogram"
bin	-INF	0
bin	2	0
bin	3	1
bin	4	0
scalar scenarioPRJP1.node[34].wlan[0].radio 	transmissionState:count 	22960
attr interpolationmode  sample-hold
attr source  transmissionStateChanged
attr title  "Radio transmission state, count"
scalar scenarioPRJP1.node[34].wlan[0].radio 	receptionState:count 	118961
attr interpolationmode  sample-hold
attr source  receptionStateChanged
attr title  "Radio reception state, count"
scalar scenarioPRJP1.node[34].wlan[0].radio 	radioMode:count 	11482
attr interpolationmode  sample-hold
attr source  radioModeChanged
attr title  "Radio mode, count"
statistic scenarioPRJP1.node[34].wlan[0].radio 	symbolErrorRate:histogram
field count 0
field mean -nan
field stddev -nan
field sum 0
field sqrsum 0
field min -nan
field max -nan
attr source  symbolErrorRate
attr title  "Symbol error rate, histogram"
bin	-INF	0
bin	-0.5	0
bin	-0.46666666666667	0
bin	-0.43333333333333	0
bin	-0.4	0
bin	-0.36666666666667	0
bin	-0.33333333333333	0
bin	-0.3	0
bin	-0.26666666666667	0
bin	-0.23333333333333	0
bin	-0.2	0
bin	-0.16666666666667	0
bin	-0.13333333333333	0
bin	-0.1	0
bin	-0.066666666666667	0
bin	-0.033333333333333	0
bin	-6.9388939039072e-18	0
bin	0.033333333333333	0
bin	0.066666666666667	0
bin	0.1	0
bin	0.13333333333333	0
bin	0.16666666666667	0
bin	0.2	0
bin	0.23333333333333	0
bin	0.26666666666667	0
bin	0.3	0
bin	0.33333333333333	0
bin	0.36666666666667	0
bin	0.4	0
bin	0.43333333333333	0
bin	0.46666666666667	0
bin	0.5	0
statistic scenarioPRJP1.node[34].wlan[0].radio 	bitErrorRate:histogram
field count 0
field mean -nan
field stddev -nan
field sum 0
field sqrsum 0
field min -nan
field max -nan
attr source  bitErrorRate
attr title  "Bit error rate, histogram"
bin	-INF	0
bin	-0.5	0
bin	-0.46666666666667	0
bin	-0.43333333333333	0
bin	-0.4	0
bin	-0.36666666666667	0
bin	-0.33333333333333	0
bin	-0.3	0
bin	-0.26666666666667	0
bin	-0.23333333333333	0
bin	-0.2	0
bin	-0.16666666666667	0
bin	-0.13333333333333	0
bin	-0.1	0
bin	-0.066666666666667	0
bin	-0.033333333333333	0
bin	-6.9388939039072e-18	0
bin	0.033333333333333	0
bin	0.066666666666667	0
bin	0.1	0
bin	0.13333333333333	0
bin	0.16666666666667	0
bin	0.2	0
bin	0.23333333333333	0
bin	0.26666666666667	0
bin	0.3	0
bin	0.33333333333333	0
bin	0.36666666666667	0
bin	0.4	0
bin	0.43333333333333	0
bin	0.46666666666667	0
bin	0.5	0
statistic scenarioPRJP1.node[34].wlan[0].radio 	packetErrorRate:histogram
field count 36321
field mean 0.1157564741442
field stddev 0.31263057101707
field sum 4204.3908973915
field sqrsum 4036.5250475055
field min 0
field max 1
attr source  packetErrorRate
attr title  "Packet error rate, histogram"
bin	-INF	0
bin	-0.5	0
bin	-0.43333333333333	0
bin	-0.36666666666667	0
bin	-0.3	0
bin	-0.23333333333333	0
bin	-0.16666666666667	0
bin	-0.1	0
bin	-0.033333333333333	31446
bin	0.033333333333333	245
bin	0.1	151
bin	0.16666666666667	106
bin	0.23333333333333	67
bin	0.3	61
bin	0.36666666666667	47
bin	0.43333333333333	48
bin	0.5	47
bin	0.56666666666667	31
bin	0.63333333333333	40
bin	0.7	51
bin	0.76666666666667	53
bin	0.83333333333333	68
bin	0.9	101
bin	0.96666666666667	3759
bin	1.0333333333333	0
bin	1.1	0
bin	1.1666666666667	0
bin	1.2333333333333	0
bin	1.3	0
bin	1.3666666666667	0
bin	1.4333333333333	0
bin	1.5	0
statistic scenarioPRJP1.node[34].wlan[0].radio 	minSNIR:histogram
field count 36321
field mean 38127.150882634
field stddev 267241.95807408
field sum 1384816247.2081
field sqrsum 2.6467104521214e+15
field min 0.00042795933181674
field max 13225453.119104
attr source  minSNIR
attr title  "Min SNIR, histogram"
bin	-INF	0
bin	-22826.327799476	0
bin	-19782.641837927	0
bin	-16738.955876378	0
bin	-13695.269914828	0
bin	-10651.583953279	0
bin	-7607.8979917294	0
bin	-4564.21203018	0
bin	-1520.5260686306	27643
bin	1523.1598929187	2830
bin	4566.8458544681	946
bin	7610.5318160175	497
bin	10654.217777567	341
bin	13697.903739116	231
bin	16741.589700666	211
bin	19785.275662215	150
bin	22828.961623765	122
bin	25872.647585314	107
bin	28916.333546863	138
bin	31960.019508413	162
bin	35003.705469962	59
bin	38047.391431512	47
bin	41091.077393061	70
bin	44134.76335461	79
bin	47178.44931616	174
bin	50222.135277709	261
bin	53265.821239259	76
bin	56309.507200808	74
bin	59353.193162357	58
bin	62396.879123907	62
bin	65440.565085456	49
bin	68484.251047006	1934
scalar scenarioPRJP1.node[34].lo0.lo 	droppedPkBitError:count 	0
attr interpolationmode  none
attr source  dropPkBitError
attr title  "packets dropped/bit error, count"
scalar scenarioPRJP1.node[34].lo0.lo 	droppedPkBitError:sum(packetBytes) 	0
attr interpolationmode  none
attr source  dropPkBitError
attr title  "packets dropped/bit error, sum(packetBytes)"
scalar scenarioPRJP1.node[34].lo0.lo 	rcvdPkFromHL:count 	0
attr interpolationmode  none
attr source  packetReceivedFromUpper
attr title  "packets received from higher layer, count"
scalar scenarioPRJP1.node[34].lo0.lo 	rcvdPkFromHL:sum(packetBytes) 	0
attr interpolationmode  none
attr source  packetReceivedFromUpper
attr title  "packets received from higher layer, sum(packetBytes)"
scalar scenarioPRJP1.node[34].lo0.lo 	passedUpPk:count 	0
attr interpolationmode  none
attr source  packetSentToUpper
attr title  "packets passed to higher layer, count"
scalar scenarioPRJP1.node[34].lo0.lo 	passedUpPk:sum(packetBytes) 	0
attr interpolationmode  none
attr source  packetSentToUpper
attr title  "packets passed to higher layer, sum(packetBytes)"
scalar scenarioPRJP1.node[5].app 	"Total sent" 	5015
scalar scenarioPRJP1.node[5].app 	"Total received" 	380
scalar scenarioPRJP1.node[5].app 	"Total deleted" 	5
scalar scenarioPRJP1.node[5].app 	dropPk:count 	5
attr interpolationmode  none
attr source  dropPk
attr title  "packets dropped, count"
scalar scenarioPRJP1.node[5].app 	dropPk:sum(packetBytes) 	2560
attr interpolationmode  none
attr source  dropPk
attr title  "packets dropped, sum(packetBytes)"
scalar scenarioPRJP1.node[5].app 	outOfOrderPk:count 	0
attr interpolationmode  none
attr source  outOfOrderPk
attr title  "packets received out of order, count"
scalar scenarioPRJP1.node[5].app 	outOfOrderPk:sum(packetBytes) 	0
attr interpolationmode  none
attr source  outOfOrderPk
attr title  "packets received out of order, sum(packetBytes)"
scalar scenarioPRJP1.node[5].app 	rcvdPk:count 	380
attr interpolationmode  none
attr source  rcvdPk
attr title  "packets received, count"
scalar scenarioPRJP1.node[5].app 	rcvdPk:sum(packetBytes) 	194560
attr interpolationmode  none
attr source  rcvdPk
attr title  "packets received, sum(packetBytes)"
statistic scenarioPRJP1.node[5].app 	endToEndDelay:histogram
field count 380
field mean 0.18222857734773
field stddev 1.2988739492311
field sum 69.246859392136
field sqrsum 652.01962681352
field min 0.000891088293
field max 18.194142657038
attr interpolationmode  none
attr source  messageAge(rcvdPk)
attr title  "delay, histogram"
attr unit  s
bin	-INF	0
bin	-9.0957346960795	0
bin	-7.8828512581632	0
bin	-6.6699678202468	0
bin	-5.4570843823305	0
bin	-4.2442009444142	0
bin	-3.0313175064978	0
bin	-1.8184340685815	0
bin	-0.60555063066517	357
bin	0.60733280725117	17
bin	1.8202162451675	2
bin	3.0330996830838	0
bin	4.2459831210002	0
bin	5.4588665589165	1
bin	6.6717499968328	0
bin	7.8846334347492	1
bin	9.0975168726655	0
bin	10.310400310582	0
bin	11.523283748498	0
bin	12.736167186414	1
bin	13.949050624331	0
bin	15.161934062247	0
bin	16.374817500163	0
bin	17.58770093808	1
bin	18.800584375996	0
bin	20.013467813912	0
bin	21.226351251829	0
bin	22.439234689745	0
bin	23.652118127661	0
bin	24.865001565578	0
bin	26.077885003494	0
bin	27.29076844141	0
scalar scenarioPRJP1.node[5].app 	sentPk:count 	5015
attr interpolationmode  none
attr source  sentPk
attr title  "packets sent, count"
scalar scenarioPRJP1.node[5].app 	sentPk:sum(packetBytes) 	2567680
attr interpolationmode  none
attr source  sentPk
attr title  "packets sent, sum(packetBytes)"
scalar scenarioPRJP1.node[5].udp 	droppedPkBadChecksum:count 	0
attr interpolationmode  none
attr title  "packets dropped (checksum error), count"
scalar scenarioPRJP1.node[5].udp 	droppedPkWrongPort:count 	0
attr interpolationmode  none
attr title  "packets dropped (wrong port), count"
scalar scenarioPRJP1.node[5].udp 	passedUpPk:count 	385
attr interpolationmode  none
attr title  "packets passed up, count"
scalar scenarioPRJP1.node[5].udp 	rcvdPk:count 	385
attr interpolationmode  none
attr source  rcvdPk
attr title  "packets received, count"
scalar scenarioPRJP1.node[5].udp 	rcvdPk:sum(packetBytes) 	200200
attr interpolationmode  none
attr source  rcvdPk
attr title  "packets received, sum(packetBytes)"
scalar scenarioPRJP1.node[5].udp 	sentPk:count 	5015
attr interpolationmode  none
attr source  sentPk
attr title  "packets sent, count"
scalar scenarioPRJP1.node[5].udp 	sentPk:sum(packetBytes) 	2607800
attr interpolationmode  none
attr source  sentPk
attr title  "packets sent, sum(packetBytes)"
scalar scenarioPRJP1.node[5].networkLayer.arp 	failedARPResolution:count 	12
attr title  "ARP failed resolutions, count"
scalar scenarioPRJP1.node[5].networkLayer.arp 	completedARPResolution:count 	850
attr title  "ARP completed resolutions, count"
scalar scenarioPRJP1.node[5].networkLayer.arp 	initiatedARPResolution:count 	102
attr title  "ARP initiated resolutions, count"
scalar scenarioPRJP1.node[5].networkLayer.arp 	sentReply:count 	76
attr title  "ARP replies sent, count"
scalar scenarioPRJP1.node[5].networkLayer.arp 	sentReq:count 	145
attr title  "ARP request sent, count"
scalar scenarioPRJP1.node[5].mobility 	startTime 	0.1
scalar scenarioPRJP1.node[5].mobility 	totalTime 	1879.9
scalar scenarioPRJP1.node[5].mobility 	stopTime 	1880.1
scalar scenarioPRJP1.node[5].mobility 	minSpeed 	2.4755300944878e-13
scalar scenarioPRJP1.node[5].mobility 	maxSpeed 	19.167946205919
scalar scenarioPRJP1.node[5].mobility 	totalDistance 	21907.325762978
scalar scenarioPRJP1.node[5].mobility 	totalCO2Emission 	5655.0120750775
scalar scenarioPRJP1.node[5].wlan[0].mgmt 	dataQueueLen:max 	1
attr interpolationmode  sample-hold
attr title  "data queue length, max"
scalar scenarioPRJP1.node[5].wlan[0].mgmt 	dataQueueLen:timeavg 	0
attr interpolationmode  sample-hold
attr title  "data queue length, timeavg"
scalar scenarioPRJP1.node[5].wlan[0].mgmt 	dropPkByQueue:count 	0
attr interpolationmode  none
attr source  dropPkByQueue
attr title  "packets dropped by queue, count"
scalar scenarioPRJP1.node[5].wlan[0].mgmt 	dropPkByQueue:sum(packetBytes) 	0
attr interpolationmode  none
attr source  dropPkByQueue
attr title  "packets dropped by queue, sum(packetBytes)"
scalar scenarioPRJP1.node[5].wlan[0].mac 	"number of received packets" 	732
scalar scenarioPRJP1.node[5].wlan[0].mac 	"number of collisions" 	4380
scalar scenarioPRJP1.node[5].wlan[0].mac 	"number of internal collisions" 	0
scalar scenarioPRJP1.node[5].wlan[0].mac 	"number of retry for AC 0" 	701
scalar scenarioPRJP1.node[5].wlan[0].mac 	"number of retry for AC 1" 	0
scalar scenarioPRJP1.node[5].wlan[0].mac 	"number of retry for AC 2" 	0
scalar scenarioPRJP1.node[5].wlan[0].mac 	"number of retry for AC 3" 	0
scalar scenarioPRJP1.node[5].wlan[0].mac 	"sent and received bits" 	4273536
scalar scenarioPRJP1.node[5].wlan[0].mac 	"sent packet within AC 0" 	716
scalar scenarioPRJP1.node[5].wlan[0].mac 	"sent packet within AC 1" 	0
scalar scenarioPRJP1.node[5].wlan[0].mac 	"sent packet within AC 2" 	0
scalar scenarioPRJP1.node[5].wlan[0].mac 	"sent packet within AC 3" 	0
scalar scenarioPRJP1.node[5].wlan[0].mac 	"sent in TXOP " 	0
scalar scenarioPRJP1.node[5].wlan[0].mac 	"sentWithoutRetry AC 0" 	590
scalar scenarioPRJP1.node[5].wlan[0].mac 	"sentWithoutRetry AC 1" 	0
scalar scenarioPRJP1.node[5].wlan[0].mac 	"sentWithoutRetry AC 2" 	0
scalar scenarioPRJP1.node[5].wlan[0].mac 	"sentWithoutRetry AC 3" 	0
scalar scenarioPRJP1.node[5].wlan[0].mac 	"numGivenUp AC 0" 	61
scalar scenarioPRJP1.node[5].wlan[0].mac 	"numGivenUp AC 1" 	0
scalar scenarioPRJP1.node[5].wlan[0].mac 	"numGivenUp AC 2" 	0
scalar scenarioPRJP1.node[5].wlan[0].mac 	"numGivenUp AC 3" 	0
scalar scenarioPRJP1.node[5].wlan[0].mac 	"numDropped AC 0" 	0
scalar scenarioPRJP1.node[5].wlan[0].mac 	"numDropped AC 1" 	0
scalar scenarioPRJP1.node[5].wlan[0].mac 	"numDropped AC 2" 	0
scalar scenarioPRJP1.node[5].wlan[0].mac 	"numDropped AC 3" 	0
scalar scenarioPRJP1.node[5].wlan[0].mac 	rcvdPkFromLL:count 	34099
attr interpolationmode  none
attr source  packetReceivedFromLower
attr title  "packets received from lower layer, count"
scalar scenarioPRJP1.node[5].wlan[0].mac 	rcvdPkFromLL:sum(packetBytes) 	6793706
attr interpolationmode  none
attr source  packetReceivedFromLower
attr title  "packets received from lower layer, sum(packetBytes)"
scalar scenarioPRJP1.node[5].wlan[0].mac 	sentDownPk:count 	4902
attr interpolationmode  none
attr source  packetSentToLower
attr title  "packets sent to lower layer, count"
scalar scenarioPRJP1.node[5].wlan[0].mac 	sentDownPk:sum(packetBytes) 	948172
attr interpolationmode  none
attr source  packetSentToLower
attr title  "packets sent to lower layer, sum(packetBytes)"
scalar scenarioPRJP1.node[5].wlan[0].mac 	rcvdPkFromHL:count 	3469
attr interpolationmode  none
attr source  packetReceivedFromUpper
attr title  "packets received from higher layer, count"
scalar scenarioPRJP1.node[5].wlan[0].mac 	rcvdPkFromHL:sum(packetBytes) 	568324
attr interpolationmode  none
attr source  packetReceivedFromUpper
attr title  "packets received from higher layer, sum(packetBytes)"
scalar scenarioPRJP1.node[5].wlan[0].mac 	passedUpPk:count 	17387
attr interpolationmode  none
attr source  packetSentToUpper
attr title  "packets passed to higher layer, count"
scalar scenarioPRJP1.node[5].wlan[0].mac 	passedUpPk:sum(packetBytes) 	1732660
attr interpolationmode  none
attr source  packetSentToUpper
attr title  "packets passed to higher layer, sum(packetBytes)"
statistic scenarioPRJP1.node[5].wlan[0].radio 	radioChannel:histogram
field count 1
field mean 3
field stddev -nan
field sum 3
field sqrsum 9
field min 3
field max 3
attr interpolationmode  sample-hold
attr source  radioChannelChanged
attr title  "Radio channel, histogram"
bin	-INF	0
bin	2	0
bin	3	1
bin	4	0
[...]
bin	-INF	0
bin	2	0
bin	3	1
bin	4	0
scalar scenarioPRJP1.node[58].wlan[0].radio 	transmissionState:count 	18228
attr interpolationmode  sample-hold
attr source  transmissionStateChanged
attr title  "Radio transmission state, count"
scalar scenarioPRJP1.node[58].wlan[0].radio 	receptionState:count 	91965
attr interpolationmode  sample-hold
attr source  receptionStateChanged
attr title  "Radio reception state, count"
scalar scenarioPRJP1.node[58].wlan[0].radio 	radioMode:count 	9116
attr interpolationmode  sample-hold
attr source  radioModeChanged
attr title  "Radio mode, count"
statistic scenarioPRJP1.node[58].wlan[0].radio 	symbolErrorRate:histogram
field count 0
field mean -nan
field stddev -nan
field sum 0
field sqrsum 0
field min -nan
field max -nan
attr source  symbolErrorRate
attr title  "Symbol error rate, histogram"
bin	-INF	0
bin	-0.5	0
bin	-0.46666666666667	0
bin	-0.43333333333333	0
bin	-0.4	0
bin	-0.36666666666667	0
bin	-0.33333333333333	0
bin	-0.3	0
bin	-0.26666666666667	0
bin	-0.23333333333333	0
bin	-0.2	0
bin	-0.16666666666667	0
bin	-0.13333333333333	0
bin	-0.1	0
bin	-0.066666666666667	0
bin	-0.033333333333333	0
bin	-6.9388939039072e-18	0
bin	0.033333333333333	0
bin	0.066666666666667	0
bin	0.1	0
bin	0.13333333333333	0
bin	0.16666666666667	0
bin	0.2	0
bin	0.23333333333333	0
bin	0.26666666666667	0
bin	0.3	0
bin	0.33333333333333	0
bin	0.36666666666667	0
bin	0.4	0
bin	0.43333333333333	0
bin	0.46666666666667	0
bin	0.5	0
statistic scenarioPRJP1.node[58].wlan[0].radio 	bitErrorRate:histogram
field count 0
field mean -nan
field stddev -nan
field sum 0
field sqrsum 0
field min -nan
field max -nan
attr source  bitErrorRate
attr title  "Bit error rate, histogram"
bin	-INF	0
bin	-0.5	0
bin	-0.46666666666667	0
bin	-0.43333333333333	0
bin	-0.4	0
bin	-0.36666666666667	0
bin	-0.33333333333333	0
bin	-0.3	0
bin	-0.26666666666667	0
bin	-0.23333333333333	0
bin	-0.2	0
bin	-0.16666666666667	0
bin	-0.13333333333333	0
bin	-0.1	0
bin	-0.066666666666667	0
bin	-0.033333333333333	0
bin	-6.9388939039072e-18	0
bin	0.033333333333333	0
bin	0.066666666666667	0
bin	0.1	0
bin	0.13333333333333	0
bin	0.16666666666667	0
bin	0.2	0
bin	0.23333333333333	0
bin	0.26666666666667	0
bin	0.3	0
bin	0.33333333333333	0
bin	0.36666666666667	0
bin	0.4	0
bin	0.43333333333333	0
bin	0.46666666666667	0
bin	0.5	0
statistic scenarioPRJP1.node[58].wlan[0].radio 	packetErrorRate:histogram
field count 29023
field mean 0.10133299848486
field stddev 0.29505795680443
field sum 2940.9876150262
field sqrsum 2824.6511342251
field min 0
field max 1
attr source  packetErrorRate
attr title  "Packet error rate, histogram"
bin	-INF	0
bin	-4.646551587939e-09	0
bin	-4.0270113762138e-09	0
bin	-3.4074711644886e-09	0
bin	-2.7879309527634e-09	0
bin	-2.1683907410382e-09	0
bin	-1.548850529313e-09	0
bin	-9.2931031758781e-10	0
bin	-3.097701058626e-10	22803
bin	3.097701058626e-10	121
bin	9.2931031758781e-10	57
bin	1.548850529313e-09	44
bin	2.1683907410382e-09	26
bin	2.7879309527634e-09	26
bin	3.4074711644886e-09	18
bin	4.0270113762138e-09	19
bin	4.646551587939e-09	29
bin	5.2660917996642e-09	13
bin	5.8856320113894e-09	10
bin	6.5051722231146e-09	6
bin	7.1247124348398e-09	8
bin	7.744252646565e-09	8
bin	8.3637928582903e-09	8
bin	8.9833330700155e-09	11
bin	9.6028732817407e-09	13
bin	1.0222413493466e-08	10
bin	1.0841953705191e-08	6
bin	1.1461493916916e-08	9
bin	1.2081034128641e-08	9
bin	1.2700574340367e-08	2
bin	1.3320114552092e-08	5
bin	1.3939654763817e-08	5762
statistic scenarioPRJP1.node[58].wlan[0].radio 	minSNIR:histogram
field count 29023
field mean 48197.586400416
field stddev 294230.98571609
field sum 1398838550.0993
field sqrsum 2.5799095387921e+15
field min 0.0026856206970893
field max 3012958.8769377
attr source  minSNIR
attr title  "Min SNIR, histogram"
bin	-INF	0
bin	-7063.4367967949	0
bin	-6120.3702866794	0
bin	-5177.3037765638	0
bin	-4234.2372664483	0
bin	-3291.1707563328	0
bin	-2348.1042462173	0
bin	-1405.0377361017	0
bin	-461.97122598622	17097
bin	481.09528412931	4388
bin	1424.1617942448	1212
bin	2367.2283043604	740
bin	3310.2948144759	459
bin	4253.3613245914	316
bin	5196.4278347069	240
bin	6139.4943448224	196
bin	7082.560854938	158
bin	8025.6273650535	133
bin	8968.693875169	144
bin	9911.7603852845	128
bin	10854.8268954	106
bin	11797.893405516	117
bin	12740.959915631	84
bin	13684.026425747	89
bin	14627.092935862	64
bin	15570.159445978	59
bin	16513.225956093	46
bin	17456.292466209	31
bin	18399.358976324	81
bin	19342.42548644	68
bin	20285.491996555	34
bin	21228.558506671	3033
scalar scenarioPRJP1.node[58].lo0.lo 	droppedPkBitError:count 	0
attr interpolationmode  none
attr source  dropPkBitError
attr title  "packets dropped/bit error, count"
scalar scenarioPRJP1.node[58].lo0.lo 	droppedPkBitError:sum(packetBytes) 	0
attr interpolationmode  none
attr source  dropPkBitError
attr title  "packets dropped/bit error, sum(packetBytes)"
scalar scenarioPRJP1.node[58].lo0.lo 	rcvdPkFromHL:count 	0
attr interpolationmode  none
attr source  packetReceivedFromUpper
attr title  "packets received from higher layer, count"
scalar scenarioPRJP1.node[58].lo0.lo 	rcvdPkFromHL:sum(packetBytes) 	0
attr interpolationmode  none
attr source  packetReceivedFromUpper
attr title  "packets received from higher layer, sum(packetBytes)"
scalar scenarioPRJP1.node[58].lo0.lo 	passedUpPk:count 	0
attr interpolationmode  none
attr source  packetSentToUpper
attr title  "packets passed to higher layer, count"
scalar scenarioPRJP1.node[58].lo0.lo 	passedUpPk:sum(packetBytes) 	0
attr interpolationmode  none
attr source  packetSentToUpper
attr title  "packets passed to higher layer, sum(packetBytes)"
scalar scenarioPRJP1.node[71].app 	"Total sent" 	5015
scalar scenarioPRJP1.node[71].app 	"Total received" 	319
scalar scenarioPRJP1.node[71].app 	"Total deleted" 	8
scalar scenarioPRJP1.node[71].app 	dropPk:count 	8
attr interpolationmode  none
attr source  dropPk
attr title  "packets dropped, count"
scalar scenarioPRJP1.node[71].app 	dropPk:sum(packetBytes) 	4096
attr interpolationmode  none
attr source  dropPk
attr title  "packets dropped, sum(packetBytes)"
scalar scenarioPRJP1.node[71].app 	outOfOrderPk:count 	0
attr interpolationmode  none
attr source  outOfOrderPk
attr title  "packets received out of order, count"
scalar scenarioPRJP1.node[71].app 	outOfOrderPk:sum(packetBytes) 	0
attr interpolationmode  none
attr source  outOfOrderPk
attr title  "packets received out of order, sum(packetBytes)"
scalar scenarioPRJP1.node[71].app 	rcvdPk:count 	319
attr interpolationmode  none
attr source  rcvdPk
attr title  "packets received, count"
scalar scenarioPRJP1.node[71].app 	rcvdPk:sum(packetBytes) 	163328
attr interpolationmode  none
attr source  rcvdPk
attr title  "packets received, sum(packetBytes)"
statistic scenarioPRJP1.node[71].app 	endToEndDelay:histogram
field count 319
field mean 0.1122958332028
field stddev 0.96142504982665
field sum 35.822370791692
field sqrsum 297.96222718142
field min 0.000891025103
field max 12.49614328592
attr interpolationmode  none
attr source  messageAge(rcvdPk)
attr title  "delay, histogram"
attr unit  s
bin	-INF	0
bin	-6.246734512867	0
bin	-5.4137177218098	0
bin	-4.5807009307526	0
bin	-3.7476841396954	0
bin	-2.9146673486382	0
bin	-2.081650557581	0
bin	-1.2486337665238	0
bin	-0.4156169754666	309
bin	0.4173998155906	4
bin	1.2504166066478	4
bin	2.083433397705	0
bin	2.9164501887622	0
bin	3.7494669798194	0
bin	4.5824837708766	0
bin	5.4155005619338	0
bin	6.248517352991	0
bin	7.0815341440482	0
bin	7.9145509351054	0
bin	8.7475677261626	0
bin	9.5805845172198	0
bin	10.413601308277	0
bin	11.246618099334	1
bin	12.079634890391	1
bin	12.912651681449	0
bin	13.745668472506	0
bin	14.578685263563	0
bin	15.41170205462	0
bin	16.244718845677	0
bin	17.077735636735	0
bin	17.910752427792	0
bin	18.743769218849	0
scalar scenarioPRJP1.node[71].app 	sentPk:count 	5015
attr interpolationmode  none
attr source  sentPk
attr title  "packets sent, count"
scalar scenarioPRJP1.node[71].app 	sentPk:sum(packetBytes) 	2567680
attr interpolationmode  none
attr source  sentPk
attr title  "packets sent, sum(packetBytes)"
scalar scenarioPRJP1.node[71].udp 	droppedPkBadChecksum:count 	0
attr interpolationmode  none
attr title  "packets dropped (checksum error), count"
scalar scenarioPRJP1.node[71].udp 	droppedPkWrongPort:count 	0
attr interpolationmode  none
attr title  "packets dropped (wrong port), count"
scalar scenarioPRJP1.node[71].udp 	passedUpPk:count 	327
attr interpolationmode  none
attr title  "packets passed up, count"
scalar scenarioPRJP1.node[71].udp 	rcvdPk:count 	327
attr interpolationmode  none
attr source  rcvdPk
attr title  "packets received, count"
scalar scenarioPRJP1.node[71].udp 	rcvdPk:sum(packetBytes) 	170040
attr interpolationmode  none
attr source  rcvdPk
attr title  "packets received, sum(packetBytes)"
scalar scenarioPRJP1.node[71].udp 	sentPk:count 	5015
attr interpolationmode  none
attr source  sentPk
attr title  "packets sent, count"
scalar scenarioPRJP1.node[71].udp 	sentPk:sum(packetBytes) 	2607800
attr interpolationmode  none
attr source  sentPk
attr title  "packets sent, sum(packetBytes)"
scalar scenarioPRJP1.node[71].networkLayer.arp 	failedARPResolution:count 	11
attr title  "ARP failed resolutions, count"
scalar scenarioPRJP1.node[71].networkLayer.arp 	completedARPResolution:count 	699
attr title  "ARP completed resolutions, count"
scalar scenarioPRJP1.node[71].networkLayer.arp 	initiatedARPResolution:count 	95
attr title  "ARP initiated resolutions, count"
scalar scenarioPRJP1.node[71].networkLayer.arp 	sentReply:count 	87
attr title  "ARP replies sent, count"
scalar scenarioPRJP1.node[71].networkLayer.arp 	sentReq:count 	127
attr title  "ARP request sent, count"
scalar scenarioPRJP1.node[71].mobility 	startTime 	7.3
scalar scenarioPRJP1.node[71].mobility 	totalTime 	1892.6
scalar scenarioPRJP1.node[71].mobility 	stopTime 	1900
scalar scenarioPRJP1.node[71].mobility 	minSpeed 	2.4755182340544e-13
scalar scenarioPRJP1.node[71].mobility 	maxSpeed 	18.233474407773
scalar scenarioPRJP1.node[71].mobility 	totalDistance 	18731.472353457
scalar scenarioPRJP1.node[71].mobility 	totalCO2Emission 	5203.6422113527
scalar scenarioPRJP1.node[71].wlan[0].mgmt 	dataQueueLen:max 	3
attr interpolationmode  sample-hold
attr title  "data queue length, max"
scalar scenarioPRJP1.node[71].wlan[0].mgmt 	dataQueueLen:timeavg 	0
attr interpolationmode  sample-hold
attr title  "data queue length, timeavg"
scalar scenarioPRJP1.node[71].wlan[0].mgmt 	dropPkByQueue:count 	0
attr interpolationmode  none
attr source  dropPkByQueue
attr title  "packets dropped by queue, count"
scalar scenarioPRJP1.node[71].wlan[0].mgmt 	dropPkByQueue:sum(packetBytes) 	0
attr interpolationmode  none
attr source  dropPkByQueue
attr title  "packets dropped by queue, sum(packetBytes)"
scalar scenarioPRJP1.node[71].wlan[0].mac 	"number of received packets" 	673
scalar scenarioPRJP1.node[71].wlan[0].mac 	"number of collisions" 	3027
scalar scenarioPRJP1.node[71].wlan[0].mac 	"number of internal collisions" 	0
scalar scenarioPRJP1.node[71].wlan[0].mac 	"number of retry for AC 0" 	795
scalar scenarioPRJP1.node[71].wlan[0].mac 	"number of retry for AC 1" 	0
scalar scenarioPRJP1.node[71].wlan[0].mac 	"number of retry for AC 2" 	0
scalar scenarioPRJP1.node[71].wlan[0].mac 	"number of retry for AC 3" 	0
scalar scenarioPRJP1.node[71].wlan[0].mac 	"sent and received bits" 	4561088
scalar scenarioPRJP1.node[71].wlan[0].mac 	"sent packet within AC 0" 	716
scalar scenarioPRJP1.node[71].wlan[0].mac 	"sent packet within AC 1" 	2
scalar scenarioPRJP1.node[71].wlan[0].mac 	"sent packet within AC 2" 	0
scalar scenarioPRJP1.node[71].wlan[0].mac 	"sent packet within AC 3" 	0
scalar scenarioPRJP1.node[71].wlan[0].mac 	"sent in TXOP " 	0
scalar scenarioPRJP1.node[71].wlan[0].mac 	"sentWithoutRetry AC 0" 	566
scalar scenarioPRJP1.node[71].wlan[0].mac 	"sentWithoutRetry AC 1" 	2
scalar scenarioPRJP1.node[71].wlan[0].mac 	"sentWithoutRetry AC 2" 	0
scalar scenarioPRJP1.node[71].wlan[0].mac 	"sentWithoutRetry AC 3" 	0
scalar scenarioPRJP1.node[71].wlan[0].mac 	"numGivenUp AC 0" 	64
scalar scenarioPRJP1.node[71].wlan[0].mac 	"numGivenUp AC 1" 	0
scalar scenarioPRJP1.node[71].wlan[0].mac 	"numGivenUp AC 2" 	0
scalar scenarioPRJP1.node[71].wlan[0].mac 	"numGivenUp AC 3" 	0
scalar scenarioPRJP1.node[71].wlan[0].mac 	"numDropped AC 0" 	0
scalar scenarioPRJP1.node[71].wlan[0].mac 	"numDropped AC 1" 	0
scalar scenarioPRJP1.node[71].wlan[0].mac 	"numDropped AC 2" 	0
scalar scenarioPRJP1.node[71].wlan[0].mac 	"numDropped AC 3" 	0
scalar scenarioPRJP1.node[71].wlan[0].mac 	rcvdPkFromLL:count 	28009
attr interpolationmode  none
attr source  packetReceivedFromLower
attr title  "packets received from lower layer, count"
scalar scenarioPRJP1.node[71].wlan[0].mac 	rcvdPkFromLL:sum(packetBytes) 	5719326
attr interpolationmode  none
attr source  packetReceivedFromLower
attr title  "packets received from lower layer, sum(packetBytes)"
scalar scenarioPRJP1.node[71].wlan[0].mac 	sentDownPk:count 	5026
attr interpolationmode  none
attr source  packetSentToLower
attr title  "packets sent to lower layer, count"
scalar scenarioPRJP1.node[71].wlan[0].mac 	sentDownPk:sum(packetBytes) 	1045166
attr interpolationmode  none
attr source  packetSentToLower
attr title  "packets sent to lower layer, sum(packetBytes)"
scalar scenarioPRJP1.node[71].wlan[0].mac 	rcvdPkFromHL:count 	3558
attr interpolationmode  none
attr source  packetReceivedFromUpper
attr title  "packets received from higher layer, count"
scalar scenarioPRJP1.node[71].wlan[0].mac 	rcvdPkFromHL:sum(packetBytes) 	605996
attr interpolationmode  none
attr source  packetReceivedFromUpper
attr title  "packets received from higher layer, sum(packetBytes)"
scalar scenarioPRJP1.node[71].wlan[0].mac 	passedUpPk:count 	13575
attr interpolationmode  none
attr source  packetSentToUpper
attr title  "packets passed to higher layer, count"
scalar scenarioPRJP1.node[71].wlan[0].mac 	passedUpPk:sum(packetBytes) 	1407896
attr interpolationmode  none
attr source  packetSentToUpper
attr title  "packets passed to higher layer, sum(packetBytes)"
statistic scenarioPRJP1.node[71].wlan[0].radio 	radioChannel:histogram
field count 1
field mean 3
field stddev -nan
field sum 3
field sqrsum 9
field min 3
field max 3
attr interpolationmode  sample-hold
attr source  radioChannelChanged
attr title  "Radio channel, histogram"
bin	-INF	0
bin	2	0
bin	3	1
bin	4	0
scalar scenarioPRJP1.node[71].wlan[0].radio 	transmissionState:count 	20104
attr interpolationmode  sample-hold
attr source  transmissionStateChanged
attr title  "Radio transmission state, count"
scalar scenarioPRJP1.node[71].wlan[0].radio 	receptionState:count 	96714
attr interpolationmode  sample-hold
attr source  receptionStateChanged
attr title  "Radio reception state, count"
scalar scenarioPRJP1.node[71].wlan[0].radio 	radioMode:count 	10054
attr interpolationmode  sample-hold
attr source  radioModeChanged
attr title  "Radio mode, count"
statistic scenarioPRJP1.node[71].wlan[0].radio 	symbolErrorRate:histogram
field count 0
field mean -nan
field stddev -nan
field sum 0
field sqrsum 0
field min -nan
field max -nan
attr source  symbolErrorRate
attr title  "Symbol error rate, histogram"
bin	-INF	0
bin	-0.5	0
bin	-0.46666666666667	0
bin	-0.43333333333333	0
bin	-0.4	0
bin	-0.36666666666667	0
bin	-0.33333333333333	0
bin	-0.3	0
bin	-0.26666666666667	0
bin	-0.23333333333333	0
bin	-0.2	0
bin	-0.16666666666667	0
bin	-0.13333333333333	0
bin	-0.1	0
bin	-0.066666666666667	0
bin	-0.033333333333333	0
bin	-6.9388939039072e-18	0
bin	0.033333333333333	0
bin	0.066666666666667	0
bin	0.1	0
bin	0.13333333333333	0
bin	0.16666666666667	0
bin	0.2	0
bin	0.23333333333333	0
bin	0.26666666666667	0
bin	0.3	0
bin	0.33333333333333	0
bin	0.36666666666667	0
bin	0.4	0
bin	0.43333333333333	0
bin	0.46666666666667	0
bin	0.5	0
statistic scenarioPRJP1.node[71].wlan[0].radio 	bitErrorRate:histogram
field count 0
field mean -nan
field stddev -nan
field sum 0
field sqrsum 0
field min -nan
field max -nan
attr source  bitErrorRate
attr title  "Bit error rate, histogram"
bin	-INF	0
bin	-0.5	0
bin	-0.46666666666667	0
bin	-0.43333333333333	0
bin	-0.4	0
bin	-0.36666666666667	0
bin	-0.33333333333333	0
bin	-0.3	0
bin	-0.26666666666667	0
bin	-0.23333333333333	0
bin	-0.2	0
bin	-0.16666666666667	0
bin	-0.13333333333333	0
bin	-0.1	0
bin	-0.066666666666667	0
bin	-0.033333333333333	0
bin	-6.9388939039072e-18	0
bin	0.033333333333333	0
bin	0.066666666666667	0
bin	0.1	0
bin	0.13333333333333	0
bin	0.16666666666667	0
bin	0.2	0
bin	0.23333333333333	0
bin	0.26666666666667	0
bin	0.3	0
bin	0.33333333333333	0
bin	0.36666666666667	0
bin	0.4	0
bin	0.43333333333333	0
bin	0.46666666666667	0
bin	0.5	0
statistic scenarioPRJP1.node[71].wlan[0].radio 	packetErrorRate:histogram
field count 28009
field mean 0.096897452818527
field stddev 0.28805801266464
field sum 2714.0007559941
field sqrsum 2587.0113020411
field min 0
field max 1
attr source  packetErrorRate
attr title  "Packet error rate, histogram"
bin	-INF	4656
bin	-2.8421709430404e-14	0
bin	-2.4632148173017e-14	0
bin	-2.084258691563e-14	0
bin	-1.7053025658242e-14	0
bin	-1.3263464400855e-14	0
bin	-9.473903143468e-15	0
bin	-5.6843418860808e-15	0
bin	-1.8947806286936e-15	21264
bin	1.8947806286936e-15	0
bin	5.6843418860808e-15	0
bin	9.473903143468e-15	0
bin	1.3263464400855e-14	21
bin	1.7053025658242e-14	0
bin	2.084258691563e-14	0
bin	2.4632148173017e-14	0
bin	2.8421709430404e-14	9
bin	3.2211270687791e-14	0
bin	3.6000831945178e-14	0
bin	3.9790393202566e-14	0
bin	4.3579954459953e-14	3
bin	4.736951571734e-14	0
bin	5.1159076974727e-14	0
bin	5.4948638232114e-14	1
bin	5.8738199489502e-14	8
bin	6.2527760746889e-14	0
bin	6.6317322004276e-14	0
bin	7.0106883261663e-14	5
bin	7.389644451905e-14	15
bin	7.7686005776438e-14	28
bin	8.1475567033825e-14	1
bin	8.5265128291212e-14	1998
statistic scenarioPRJP1.node[71].wlan[0].radio 	minSNIR:histogram
field count 28009
field mean 50318.652013298
field stddev 320436.75075844
field sum 1409375124.2405
field sqrsum 2.9467712087483e+15
field min 0.00064389035970458
field max 7892161.3704852
attr source  minSNIR
attr title  "Min SNIR, histogram"
bin	-INF	0
bin	-2827.9085654995	0
bin	-2449.2808769844	0
bin	-2070.6531884692	0
bin	-1692.0254999541	0
bin	-1313.3978114389	0
bin	-934.77012292378	0
bin	-556.14243440864	0
bin	-177.5147458935	12328
bin	201.11294262164	4872
bin	579.74063113679	2433
bin	958.36831965193	1061
bin	1336.9960081671	690
bin	1715.6236966822	492
bin	2094.2513851974	380
bin	2472.8790737125	381
bin	2851.5067622276	205
bin	3230.1344507428	184
bin	3608.7621392579	156
bin	3987.3898277731	125
bin	4366.0175162882	102
bin	4744.6452048034	107
bin	5123.2728933185	148
bin	5501.9005818336	107
bin	5880.5282703488	80
bin	6259.1559588639	66
bin	6637.7836473791	66
bin	7016.4113358942	44
bin	7395.0390244094	67
bin	7773.6667129245	36
bin	8152.2944014396	64
bin	8530.9220899548	3815
scalar scenarioPRJP1.node[71].lo0.lo 	droppedPkBitError:count 	0
attr interpolationmode  none
attr source  dropPkBitError
attr title  "packets dropped/bit error, count"
scalar scenarioPRJP1.node[71].lo0.lo 	droppedPkBitError:sum(packetBytes) 	0
attr interpolationmode  none
attr source  dropPkBitError
attr title  "packets dropped/bit error, sum(packetBytes)"
scalar scenarioPRJP1.node[71].lo0.lo 	rcvdPkFromHL:count 	0
attr interpolationmode  none
attr source  packetReceivedFromUpper
attr title  "packets received from higher layer, count"
scalar scenarioPRJP1.node[71].lo0.lo 	rcvdPkFromHL:sum(packetBytes) 	0
attr interpolationmode  none
attr source  packetReceivedFromUpper
attr title  "packets received from higher layer, sum(packetBytes)"
scalar scenarioPRJP1.node[71].lo0.lo 	passedUpPk:count 	0
attr interpolationmode  none
attr source  packetSentToUpper
attr title  "packets passed to higher layer, count"
scalar scenarioPRJP1.node[71].lo0.lo 	passedUpPk:sum(packetBytes) 	0
attr interpolationmode  none
attr source  packetSentToUpper
attr title  "packets passed to higher layer, sum(packetBytes)"
