version 2
run OLSR-ETX-TRG-100n-20-20150819-13:58:14-14502
attr configname OLSR-ETX-TRG-100n
attr datetime 20150819-13:58:14
attr experiment OLSR-ETX-TRG-100n
attr inifile omnetpp.ini
attr iterationvars ""
attr iterationvars2 $repetition=20
attr measurement ""
attr network Prj_Part1_propag.scenarioPRJP1
attr processid 14502
attr repetition 20
attr replication #20
attr resultdir results
attr runnumber 20
attr seedset 20

scalar scenarioPRJP1.radioMedium.propagation 	"Arrival computation count" 	85879795
scalar scenarioPRJP1.radioMedium 	"transmission count" 	867661
scalar scenarioPRJP1.radioMedium 	"radio frame send count" 	85879639
scalar scenarioPRJP1.radioMedium 	"reception computation count" 	85234311
scalar scenarioPRJP1.radioMedium 	"interference computation count" 	231029162
scalar scenarioPRJP1.radioMedium 	"reception decision computation count" 	5749989
scalar scenarioPRJP1.radioMedium 	"listening decision computation count" 	141253220
scalar scenarioPRJP1.radioMedium 	"reception cache hit" 	89.122018905289
attr unit  %
scalar scenarioPRJP1.radioMedium 	"interference cache hit" 	50
attr unit  %
scalar scenarioPRJP1.radioMedium 	"noise cache hit" 	0
attr unit  %
scalar scenarioPRJP1.radioMedium 	"snir cache hit" 	0
attr unit  %
scalar scenarioPRJP1.radioMedium 	"reception decision cache hit" 	0
attr unit  %
scalar scenarioPRJP1.node[0].app 	"Total sent" 	2613
scalar scenarioPRJP1.node[0].app 	"Total received" 	197
scalar scenarioPRJP1.node[0].app 	"Total deleted" 	0
scalar scenarioPRJP1.node[0].app 	dropPk:count 	0
attr interpolationmode  none
attr source  dropPk
attr title  "packets dropped, count"
scalar scenarioPRJP1.node[0].app 	dropPk:sum(packetBytes) 	0
attr interpolationmode  none
attr source  dropPk
attr title  "packets dropped, sum(packetBytes)"
scalar scenarioPRJP1.node[0].app 	outOfOrderPk:count 	0
attr interpolationmode  none
attr source  outOfOrderPk
attr title  "packets received out of order, count"
scalar scenarioPRJP1.node[0].app 	outOfOrderPk:sum(packetBytes) 	0
attr interpolationmode  none
attr source  outOfOrderPk
attr title  "packets received out of order, sum(packetBytes)"
scalar scenarioPRJP1.node[0].app 	rcvdPk:count 	197
attr interpolationmode  none
attr source  rcvdPk
attr title  "packets received, count"
scalar scenarioPRJP1.node[0].app 	rcvdPk:sum(packetBytes) 	100864
attr interpolationmode  none
attr source  rcvdPk
attr title  "packets received, sum(packetBytes)"
statistic scenarioPRJP1.node[0].app 	endToEndDelay:histogram
field count 197
field mean 0.12083699562397
field stddev 0.37211513506387
field sum 23.804888137923
field sqrsum 30.016567217498
field min 0.000945010996
field max 2.391526126146
attr interpolationmode  none
attr source  messageAge(rcvdPk)
attr title  "delay, histogram"
attr unit  s
bin	-INF	0
bin	-1.0477943201275	0
bin	-0.90796240886743	0
bin	-0.76813049760737	0
bin	-0.6282985863473	0
bin	-0.48846667508723	0
bin	-0.34863476382717	0
bin	-0.2088028525671	0
bin	-0.068970941307033	176
bin	0.070860969953033	1
bin	0.2106928812131	2
bin	0.35052479247317	1
bin	0.49035670373323	0
bin	0.6301886149933	0
bin	0.77002052625337	2
bin	0.90985243751343	8
bin	1.0496843487735	2
bin	1.1895162600336	2
bin	1.3293481712936	0
bin	1.4691800825537	0
bin	1.6090119938138	0
bin	1.7488439050738	0
bin	1.8886758163339	0
bin	2.028507727594	2
bin	2.168339638854	0
bin	2.3081715501141	1
bin	2.4480034613742	0
bin	2.5878353726342	0
bin	2.7276672838943	0
bin	2.8674991951544	0
bin	3.0073311064144	0
bin	3.1471630176745	0
scalar scenarioPRJP1.node[0].app 	sentPk:count 	2613
attr interpolationmode  none
attr source  sentPk
attr title  "packets sent, count"
scalar scenarioPRJP1.node[0].app 	sentPk:sum(packetBytes) 	1337856
attr interpolationmode  none
attr source  sentPk
attr title  "packets sent, sum(packetBytes)"
scalar scenarioPRJP1.node[0].udp 	droppedPkBadChecksum:count 	0
attr interpolationmode  none
attr title  "packets dropped (checksum error), count"
scalar scenarioPRJP1.node[0].udp 	droppedPkWrongPort:count 	0
attr interpolationmode  none
attr title  "packets dropped (wrong port), count"
scalar scenarioPRJP1.node[0].udp 	passedUpPk:count 	197
attr interpolationmode  none
attr title  "packets passed up, count"
scalar scenarioPRJP1.node[0].udp 	rcvdPk:count 	197
attr interpolationmode  none
attr source  rcvdPk
attr title  "packets received, count"
scalar scenarioPRJP1.node[0].udp 	rcvdPk:sum(packetBytes) 	102440
attr interpolationmode  none
attr source  rcvdPk
attr title  "packets received, sum(packetBytes)"
scalar scenarioPRJP1.node[0].udp 	sentPk:count 	2613
attr interpolationmode  none
attr source  sentPk
attr title  "packets sent, count"
scalar scenarioPRJP1.node[0].udp 	sentPk:sum(packetBytes) 	1358760
attr interpolationmode  none
attr source  sentPk
attr title  "packets sent, sum(packetBytes)"
scalar scenarioPRJP1.node[0].networkLayer.arp 	failedARPResolution:count 	21
attr title  "ARP failed resolutions, count"
scalar scenarioPRJP1.node[0].networkLayer.arp 	completedARPResolution:count 	768
attr title  "ARP completed resolutions, count"
scalar scenarioPRJP1.node[0].networkLayer.arp 	initiatedARPResolution:count 	96
attr title  "ARP initiated resolutions, count"
scalar scenarioPRJP1.node[0].networkLayer.arp 	sentReply:count 	65
attr title  "ARP replies sent, count"
scalar scenarioPRJP1.node[0].networkLayer.arp 	sentReq:count 	158
attr title  "ARP request sent, count"
scalar scenarioPRJP1.node[0].mobility 	startTime 	0.1
scalar scenarioPRJP1.node[0].mobility 	totalTime 	949.9
scalar scenarioPRJP1.node[0].mobility 	stopTime 	950
scalar scenarioPRJP1.node[0].mobility 	minSpeed 	2.4756893314304e-13
scalar scenarioPRJP1.node[0].mobility 	maxSpeed 	19.888270846151
scalar scenarioPRJP1.node[0].mobility 	totalDistance 	9959.9539251249
scalar scenarioPRJP1.node[0].mobility 	totalCO2Emission 	2909.648030956
scalar scenarioPRJP1.node[0].wlan.mgmt 	dataQueueLen:max 	2
attr interpolationmode  sample-hold
attr title  "data queue length, max"
scalar scenarioPRJP1.node[0].wlan.mgmt 	dataQueueLen:timeavg 	0
attr interpolationmode  sample-hold
attr title  "data queue length, timeavg"
scalar scenarioPRJP1.node[0].wlan.mgmt 	dropPkByQueue:count 	0
attr interpolationmode  none
attr source  dropPkByQueue
attr title  "packets dropped by queue, count"
scalar scenarioPRJP1.node[0].wlan.mgmt 	dropPkByQueue:sum(packetBytes) 	0
attr interpolationmode  none
attr source  dropPkByQueue
attr title  "packets dropped by queue, sum(packetBytes)"
scalar scenarioPRJP1.node[0].wlan.mac 	"number of received packets" 	1570
scalar scenarioPRJP1.node[0].wlan.mac 	"number of collisions" 	9265
scalar scenarioPRJP1.node[0].wlan.mac 	"number of internal collisions" 	0
scalar scenarioPRJP1.node[0].wlan.mac 	"number of retry for AC 0" 	2399
scalar scenarioPRJP1.node[0].wlan.mac 	"number of retry for AC 1" 	31
scalar scenarioPRJP1.node[0].wlan.mac 	"number of retry for AC 2" 	0
scalar scenarioPRJP1.node[0].wlan.mac 	"number of retry for AC 3" 	0
scalar scenarioPRJP1.node[0].wlan.mac 	"sent and received bits" 	30657696
scalar scenarioPRJP1.node[0].wlan.mac 	"sent packet within AC 0" 	829
scalar scenarioPRJP1.node[0].wlan.mac 	"sent packet within AC 1" 	47
scalar scenarioPRJP1.node[0].wlan.mac 	"sent packet within AC 2" 	0
scalar scenarioPRJP1.node[0].wlan.mac 	"sent packet within AC 3" 	0
scalar scenarioPRJP1.node[0].wlan.mac 	"sent in TXOP " 	0
scalar scenarioPRJP1.node[0].wlan.mac 	"sentWithoutRetry AC 0" 	747
scalar scenarioPRJP1.node[0].wlan.mac 	"sentWithoutRetry AC 1" 	46
scalar scenarioPRJP1.node[0].wlan.mac 	"sentWithoutRetry AC 2" 	0
scalar scenarioPRJP1.node[0].wlan.mac 	"sentWithoutRetry AC 3" 	0
scalar scenarioPRJP1.node[0].wlan.mac 	"numGivenUp AC 0" 	367
scalar scenarioPRJP1.node[0].wlan.mac 	"numGivenUp AC 1" 	5
scalar scenarioPRJP1.node[0].wlan.mac 	"numGivenUp AC 2" 	0
scalar scenarioPRJP1.node[0].wlan.mac 	"numGivenUp AC 3" 	0
scalar scenarioPRJP1.node[0].wlan.mac 	"numDropped AC 0" 	0
scalar scenarioPRJP1.node[0].wlan.mac 	"numDropped AC 1" 	0
scalar scenarioPRJP1.node[0].wlan.mac 	"numDropped AC 2" 	0
scalar scenarioPRJP1.node[0].wlan.mac 	"numDropped AC 3" 	0
scalar scenarioPRJP1.node[0].wlan.mac 	rcvdPkFromLL:count 	66224
attr interpolationmode  none
attr source  packetReceivedFromLower
attr title  "packets received from lower layer, count"
scalar scenarioPRJP1.node[0].wlan.mac 	rcvdPkFromLL:sum(packetBytes) 	38161386
attr interpolationmode  none
attr source  packetReceivedFromLower
attr title  "packets received from lower layer, sum(packetBytes)"
scalar scenarioPRJP1.node[0].wlan.mac 	sentDownPk:count 	8608
attr interpolationmode  none
attr source  packetSentToLower
attr title  "packets sent to lower layer, count"
scalar scenarioPRJP1.node[0].wlan.mac 	sentDownPk:sum(packetBytes) 	5318624
attr interpolationmode  none
attr source  packetSentToLower
attr title  "packets sent to lower layer, sum(packetBytes)"
scalar scenarioPRJP1.node[0].wlan.mac 	rcvdPkFromHL:count 	4608
attr interpolationmode  none
attr source  packetReceivedFromUpper
attr title  "packets received from higher layer, count"
scalar scenarioPRJP1.node[0].wlan.mac 	rcvdPkFromHL:sum(packetBytes) 	4025632
attr interpolationmode  none
attr source  packetReceivedFromUpper
attr title  "packets received from higher layer, sum(packetBytes)"
scalar scenarioPRJP1.node[0].wlan.mac 	passedUpPk:count 	20762
attr interpolationmode  none
attr source  packetSentToUpper
attr title  "packets passed to higher layer, count"
scalar scenarioPRJP1.node[0].wlan.mac 	passedUpPk:sum(packetBytes) 	20411972
attr interpolationmode  none
attr source  packetSentToUpper
attr title  "packets passed to higher layer, sum(packetBytes)"
statistic scenarioPRJP1.node[0].wlan.radio 	radioChannel:histogram
field count 1
field mean 3
field stddev -nan
field sum 3
field sqrsum 9
field min 3
field max 3
attr interpolationmode  sample-hold
attr source  radioChannelChanged
attr title  "Radio channel, histogram"
bin	-INF	0
bin	2	0
bin	3	1
bin	4	0
scalar scenarioPRJP1.node[0].wlan.radio 	transmissionState:count 	34432
attr interpolationmode  sample-hold
attr source  transmissionStateChanged
attr title  "Radio transmission state, count"
scalar scenarioPRJP1.node[0].wlan.radio 	receptionState:count 	151351
attr interpolationmode  sample-hold
attr source  receptionStateChanged
attr title  "Radio reception state, count"
scalar scenarioPRJP1.node[0].wlan.radio 	radioMode:count 	17218
attr interpolationmode  sample-hold
attr source  radioModeChanged
attr title  "Radio mode, count"
statistic scenarioPRJP1.node[0].wlan.radio 	symbolErrorRate:histogram
field count 0
field mean -nan
field stddev -nan
field sum 0
field sqrsum 0
field min -nan
field max -nan
attr source  symbolErrorRate
attr title  "Symbol error rate, histogram"
bin	-INF	0
bin	-0.5	0
bin	-0.46666666666667	0
bin	-0.43333333333333	0
bin	-0.4	0
bin	-0.36666666666667	0
bin	-0.33333333333333	0
bin	-0.3	0
bin	-0.26666666666667	0
bin	-0.23333333333333	0
bin	-0.2	0
bin	-0.16666666666667	0
bin	-0.13333333333333	0
bin	-0.1	0
bin	-0.066666666666667	0
bin	-0.033333333333333	0
bin	-6.9388939039072e-18	0
bin	0.033333333333333	0
bin	0.066666666666667	0
bin	0.1	0
bin	0.13333333333333	0
bin	0.16666666666667	0
bin	0.2	0
bin	0.23333333333333	0
bin	0.26666666666667	0
bin	0.3	0
bin	0.33333333333333	0
bin	0.36666666666667	0
bin	0.4	0
bin	0.43333333333333	0
bin	0.46666666666667	0
bin	0.5	0
statistic scenarioPRJP1.node[0].wlan.radio 	bitErrorRate:histogram
field count 0
field mean -nan
field stddev -nan
field sum 0
field sqrsum 0
field min -nan
field max -nan
attr source  bitErrorRate
attr title  "Bit error rate, histogram"
bin	-INF	0
bin	-0.5	0
bin	-0.46666666666667	0
bin	-0.43333333333333	0
bin	-0.4	0
bin	-0.36666666666667	0
bin	-0.33333333333333	0
bin	-0.3	0
bin	-0.26666666666667	0
bin	-0.23333333333333	0
bin	-0.2	0
bin	-0.16666666666667	0
bin	-0.13333333333333	0
bin	-0.1	0
bin	-0.066666666666667	0
bin	-0.033333333333333	0
bin	-6.9388939039072e-18	0
bin	0.033333333333333	0
bin	0.066666666666667	0
bin	0.1	0
bin	0.13333333333333	0
bin	0.16666666666667	0
bin	0.2	0
bin	0.23333333333333	0
bin	0.26666666666667	0
bin	0.3	0
bin	0.33333333333333	0
bin	0.36666666666667	0
bin	0.4	0
bin	0.43333333333333	0
bin	0.46666666666667	0
bin	0.5	0
statistic scenarioPRJP1.node[0].wlan.radio 	packetErrorRate:histogram
field count 66224
field mean 0.13028549550308
field stddev 0.3282449818952
field sum 8628.0266541958
field sqrsum 8259.2885083498
field min 0
field max 1
attr source  packetErrorRate
attr title  "Packet error rate, histogram"
bin	-INF	0
bin	-0.5	0
bin	-0.43333333333333	0
bin	-0.36666666666667	0
bin	-0.3	0
bin	-0.23333333333333	0
bin	-0.16666666666667	0
bin	-0.1	0
bin	-0.033333333333333	56118
bin	0.033333333333333	589
bin	0.1	289
bin	0.16666666666667	191
bin	0.23333333333333	135
bin	0.3	134
bin	0.36666666666667	160
bin	0.43333333333333	110
bin	0.5	93
bin	0.56666666666667	88
bin	0.63333333333333	103
bin	0.7	105
bin	0.76666666666667	110
bin	0.83333333333333	121
bin	0.9	184
bin	0.96666666666667	7694
bin	1.0333333333333	0
bin	1.1	0
bin	1.1666666666667	0
bin	1.2333333333333	0
bin	1.3	0
bin	1.3666666666667	0
bin	1.4333333333333	0
bin	1.5	0
statistic scenarioPRJP1.node[0].wlan.radio 	minSNIR:histogram
field count 66224
field mean 4652.2328221884
field stddev 40141.696445728
field sum 308089466.41661
field sqrsum 1.081421186435e+14
field min 0.00029052846787912
field max 1631297.6529634
attr source  minSNIR
attr title  "Min SNIR, histogram"
bin	-INF	0
bin	-12884.66726154	0
bin	-11166.583067284	0
bin	-9448.4988730269	0
bin	-7730.4146787701	0
bin	-6012.3304845133	0
bin	-4294.2462902565	0
bin	-2576.1620959997	0
bin	-858.07790174294	55279
bin	860.00629251385	4087
bin	2578.0904867706	1581
bin	4296.1746810274	815
bin	6014.2588752842	551
bin	7732.343069541	389
bin	9450.4272637978	302
bin	11168.511458055	264
bin	12886.595652311	236
bin	14604.679846568	228
bin	16322.764040825	109
bin	18040.848235082	166
bin	19758.932429339	130
bin	21477.016623595	144
bin	23195.100817852	138
bin	24913.185012109	102
bin	26631.269206366	49
bin	28349.353400623	134
bin	30067.437594879	31
bin	31785.521789136	36
bin	33503.605983393	47
bin	35221.69017765	40
bin	36939.774371906	40
bin	38657.858566163	1326
scalar scenarioPRJP1.node[0].lo0.lo 	droppedPkBitError:count 	0
attr interpolationmode  none
attr source  dropPkBitError
attr title  "packets dropped/bit error, count"
scalar scenarioPRJP1.node[0].lo0.lo 	droppedPkBitError:sum(packetBytes) 	0
attr interpolationmode  none
attr source  dropPkBitError
attr title  "packets dropped/bit error, sum(packetBytes)"
scalar scenarioPRJP1.node[0].lo0.lo 	rcvdPkFromHL:count 	5
attr interpolationmode  none
attr source  packetReceivedFromUpper
attr title  "packets received from higher layer, count"
scalar scenarioPRJP1.node[0].lo0.lo 	rcvdPkFromHL:sum(packetBytes) 	280
attr interpolationmode  none
attr source  packetReceivedFromUpper
attr title  "packets received from higher layer, sum(packetBytes)"
scalar scenarioPRJP1.node[0].lo0.lo 	passedUpPk:count 	5
attr interpolationmode  none
attr source  packetSentToUpper
attr title  "packets passed to higher layer, count"
scalar scenarioPRJP1.node[0].lo0.lo 	passedUpPk:sum(packetBytes) 	280
attr interpolationmode  none
attr source  packetSentToUpper
attr title  "packets passed to higher layer, sum(packetBytes)"
scalar scenarioPRJP1.node[20].app 	"Total sent" 	2608
scalar scenarioPRJP1.node[20].app 	"Total received" 	167
scalar scenarioPRJP1.node[20].app 	"Total deleted" 	0
scalar scenarioPRJP1.node[20].app 	dropPk:count 	0
attr interpolationmode  none
attr source  dropPk
attr title  "packets dropped, count"
scalar scenarioPRJP1.node[20].app 	dropPk:sum(packetBytes) 	0
attr interpolationmode  none
attr source  dropPk
attr title  "packets dropped, sum(packetBytes)"
scalar scenarioPRJP1.node[20].app 	outOfOrderPk:count 	0
attr interpolationmode  none
attr source  outOfOrderPk
attr title  "packets received out of order, count"
scalar scenarioPRJP1.node[20].app 	outOfOrderPk:sum(packetBytes) 	0
attr interpolationmode  none
attr source  outOfOrderPk
attr title  "packets received out of order, sum(packetBytes)"
scalar scenarioPRJP1.node[20].app 	rcvdPk:count 	167
attr interpolationmode  none
attr source  rcvdPk
attr title  "packets received, count"
scalar scenarioPRJP1.node[20].app 	rcvdPk:sum(packetBytes) 	85504
attr interpolationmode  none
attr source  rcvdPk
attr title  "packets received, sum(packetBytes)"
statistic scenarioPRJP1.node[20].app 	endToEndDelay:histogram
field count 167
field mean 0.1388288796949
field stddev 0.37737225565289
field sum 23.184422909049
field sqrsum 26.858697468704
field min 0.000945011315
field max 2.010593234526
attr interpolationmode  none
attr source  messageAge(rcvdPk)
attr title  "delay, histogram"
attr unit  s
bin	-INF	0
bin	-1.0038791002905	0
bin	-0.86990255207643	0
bin	-0.73592600386237	0
bin	-0.6019494556483	0
bin	-0.46797290743423	0
bin	-0.33399635922017	0
bin	-0.2000198110061	0
bin	-0.066043262792033	145
bin	0.067933285422033	1
bin	0.2019098336361	2
bin	0.33588638185017	0
bin	0.46986293006423	3
bin	0.6038394782783	0
bin	0.73781602649237	5
bin	0.87179257470643	5
bin	1.0057691229205	0
bin	1.1397456711346	1
bin	1.2737222193486	0
bin	1.4076987675627	1
bin	1.5416753157768	1
bin	1.6756518639908	1
bin	1.8096284122049	0
bin	1.943604960419	2
bin	2.077581508633	0
bin	2.2115580568471	0
bin	2.3455346050612	0
bin	2.4795111532752	0
bin	2.6134877014893	0
bin	2.7474642497034	0
bin	2.8814407979174	0
bin	3.0154173461315	0
scalar scenarioPRJP1.node[20].app 	sentPk:count 	2608
attr interpolationmode  none
attr source  sentPk
attr title  "packets sent, count"
scalar scenarioPRJP1.node[20].app 	sentPk:sum(packetBytes) 	1335296
attr interpolationmode  none
attr source  sentPk
attr title  "packets sent, sum(packetBytes)"
scalar scenarioPRJP1.node[20].udp 	droppedPkBadChecksum:count 	0
attr interpolationmode  none
attr title  "packets dropped (checksum error), count"
scalar scenarioPRJP1.node[20].udp 	droppedPkWrongPort:count 	0
attr interpolationmode  none
attr title  "packets dropped (wrong port), count"
scalar scenarioPRJP1.node[20].udp 	passedUpPk:count 	167
attr interpolationmode  none
attr title  "packets passed up, count"
scalar scenarioPRJP1.node[20].udp 	rcvdPk:count 	167
attr interpolationmode  none
attr source  rcvdPk
attr title  "packets received, count"
scalar scenarioPRJP1.node[20].udp 	rcvdPk:sum(packetBytes) 	86840
attr interpolationmode  none
attr source  rcvdPk
attr title  "packets received, sum(packetBytes)"
scalar scenarioPRJP1.node[20].udp 	sentPk:count 	2608
attr interpolationmode  none
attr source  sentPk
attr title  "packets sent, count"
scalar scenarioPRJP1.node[20].udp 	sentPk:sum(packetBytes) 	1356160
attr interpolationmode  none
attr source  sentPk
attr title  "packets sent, sum(packetBytes)"
scalar scenarioPRJP1.node[20].networkLayer.arp 	failedARPResolution:count 	12
attr title  "ARP failed resolutions, count"
scalar scenarioPRJP1.node[20].networkLayer.arp 	completedARPResolution:count 	592
attr title  "ARP completed resolutions, count"
scalar scenarioPRJP1.node[20].networkLayer.arp 	initiatedARPResolution:count 	76
attr title  "ARP initiated resolutions, count"
scalar scenarioPRJP1.node[20].networkLayer.arp 	sentReply:count 	58
attr title  "ARP replies sent, count"
scalar scenarioPRJP1.node[20].networkLayer.arp 	sentReq:count 	114
attr title  "ARP request sent, count"
scalar scenarioPRJP1.node[20].mobility 	startTime 	2.5
scalar scenarioPRJP1.node[20].mobility 	totalTime 	947.5
scalar scenarioPRJP1.node[20].mobility 	stopTime 	950
scalar scenarioPRJP1.node[20].mobility 	minSpeed 	2.4755948928169e-13
scalar scenarioPRJP1.node[20].mobility 	maxSpeed 	17.648682305595
scalar scenarioPRJP1.node[20].mobility 	totalDistance 	8963.8360299854
scalar scenarioPRJP1.node[20].mobility 	totalCO2Emission 	2354.26178811
scalar scenarioPRJP1.node[20].wlan.mgmt 	dataQueueLen:max 	1
attr interpolationmode  sample-hold
attr title  "data queue length, max"
scalar scenarioPRJP1.node[20].wlan.mgmt 	dataQueueLen:timeavg 	0
attr interpolationmode  sample-hold
attr title  "data queue length, timeavg"
scalar scenarioPRJP1.node[20].wlan.mgmt 	dropPkByQueue:count 	0
attr interpolationmode  none
attr source  dropPkByQueue
attr title  "packets dropped by queue, count"
scalar scenarioPRJP1.node[20].wlan.mgmt 	dropPkByQueue:sum(packetBytes) 	0
attr interpolationmode  none
attr source  dropPkByQueue
attr title  "packets dropped by queue, sum(packetBytes)"
scalar scenarioPRJP1.node[20].wlan.mac 	"number of received packets" 	1659
scalar scenarioPRJP1.node[20].wlan.mac 	"number of collisions" 	6622
scalar scenarioPRJP1.node[20].wlan.mac 	"number of internal collisions" 	2
scalar scenarioPRJP1.node[20].wlan.mac 	"number of retry for AC 0" 	2556
scalar scenarioPRJP1.node[20].wlan.mac 	"number of retry for AC 1" 	32
scalar scenarioPRJP1.node[20].wlan.mac 	"number of retry for AC 2" 	0
scalar scenarioPRJP1.node[20].wlan.mac 	"number of retry for AC 3" 	0
scalar scenarioPRJP1.node[20].wlan.mac 	"sent and received bits" 	29502752
scalar scenarioPRJP1.node[20].wlan.mac 	"sent packet within AC 0" 	893
scalar scenarioPRJP1.node[20].wlan.mac 	"sent packet within AC 1" 	56
scalar scenarioPRJP1.node[20].wlan.mac 	"sent packet within AC 2" 	0
scalar scenarioPRJP1.node[20].wlan.mac 	"sent packet within AC 3" 	0
scalar scenarioPRJP1.node[20].wlan.mac 	"sent in TXOP " 	0
scalar scenarioPRJP1.node[20].wlan.mac 	"sentWithoutRetry AC 0" 	824
scalar scenarioPRJP1.node[20].wlan.mac 	"sentWithoutRetry AC 1" 	54
scalar scenarioPRJP1.node[20].wlan.mac 	"sentWithoutRetry AC 2" 	0
scalar scenarioPRJP1.node[20].wlan.mac 	"sentWithoutRetry AC 3" 	0
scalar scenarioPRJP1.node[20].wlan.mac 	"numGivenUp AC 0" 	400
scalar scenarioPRJP1.node[20].wlan.mac 	"numGivenUp AC 1" 	5
scalar scenarioPRJP1.node[20].wlan.mac 	"numGivenUp AC 2" 	0
scalar scenarioPRJP1.node[20].wlan.mac 	"numGivenUp AC 3" 	0
scalar scenarioPRJP1.node[20].wlan.mac 	"numDropped AC 0" 	0
scalar scenarioPRJP1.node[20].wlan.mac 	"numDropped AC 1" 	0
scalar scenarioPRJP1.node[20].wlan.mac 	"numDropped AC 2" 	0
scalar scenarioPRJP1.node[20].wlan.mac 	"numDropped AC 3" 	0
scalar scenarioPRJP1.node[20].wlan.mac 	rcvdPkFromLL:count 	46816
attr interpolationmode  none
attr source  packetReceivedFromLower
attr title  "packets received from lower layer, count"
scalar scenarioPRJP1.node[20].wlan.mac 	rcvdPkFromLL:sum(packetBytes) 	28088316
attr interpolationmode  none
attr source  packetReceivedFromLower
attr title  "packets received from lower layer, sum(packetBytes)"
scalar scenarioPRJP1.node[20].wlan.mac 	sentDownPk:count 	8737
attr interpolationmode  none
attr source  packetSentToLower
attr title  "packets sent to lower layer, count"
scalar scenarioPRJP1.node[20].wlan.mac 	sentDownPk:sum(packetBytes) 	5305898
attr interpolationmode  none
attr source  packetSentToLower
attr title  "packets sent to lower layer, sum(packetBytes)"
scalar scenarioPRJP1.node[20].wlan.mac 	rcvdPkFromHL:count 	4492
attr interpolationmode  none
attr source  packetReceivedFromUpper
attr title  "packets received from higher layer, count"
scalar scenarioPRJP1.node[20].wlan.mac 	rcvdPkFromHL:sum(packetBytes) 	3903344
attr interpolationmode  none
attr source  packetReceivedFromUpper
attr title  "packets received from higher layer, sum(packetBytes)"
scalar scenarioPRJP1.node[20].wlan.mac 	passedUpPk:count 	17177
attr interpolationmode  none
attr source  packetSentToUpper
attr title  "packets passed to higher layer, count"
scalar scenarioPRJP1.node[20].wlan.mac 	passedUpPk:sum(packetBytes) 	16875856
attr interpolationmode  none
attr source  packetSentToUpper
attr title  "packets passed to higher layer, sum(packetBytes)"
statistic scenarioPRJP1.node[20].wlan.radio 	radioChannel:histogram
field count 1
field mean 3
field stddev -nan
field sum 3
field sqrsum 9
field min 3
field max 3
attr interpolationmode  sample-hold
attr source  radioChannelChanged
attr title  "Radio channel, histogram"
bin	-INF	0
bin	2	0
bin	3	1
bin	4	0
scalar scenarioPRJP1.node[20].wlan.radio 	transmissionState:count 	34948
attr interpolationmode  sample-hold
attr source  transmissionStateChanged
attr title  "Radio transmission state, count"
scalar scenarioPRJP1.node[20].wlan.radio 	receptionState:count 	112101
attr interpolationmode  sample-hold
attr source  receptionStateChanged
attr title  "Radio reception state, count"
scalar scenarioPRJP1.node[20].wlan.radio 	radioMode:count 	17476
attr interpolationmode  sample-hold
attr source  radioModeChanged
attr title  "Radio mode, count"
statistic scenarioPRJP1.node[20].wlan.radio 	symbolErrorRate:histogram
field count 0
field mean -nan
field stddev -nan
field sum 0
field sqrsum 0
field min -nan
field max -nan
attr source  symbolErrorRate
attr title  "Symbol error rate, histogram"
bin	-INF	0
bin	-0.5	0
bin	-0.46666666666667	0
bin	-0.43333333333333	0
bin	-0.4	0
bin	-0.36666666666667	0
bin	-0.33333333333333	0
bin	-0.3	0
bin	-0.26666666666667	0
bin	-0.23333333333333	0
bin	-0.2	0
bin	-0.16666666666667	0
bin	-0.13333333333333	0
bin	-0.1	0
bin	-0.066666666666667	0
bin	-0.033333333333333	0
bin	-6.9388939039072e-18	0
bin	0.033333333333333	0
bin	0.066666666666667	0
bin	0.1	0
bin	0.13333333333333	0
bin	0.16666666666667	0
bin	0.2	0
bin	0.23333333333333	0
bin	0.26666666666667	0
bin	0.3	0
bin	0.33333333333333	0
bin	0.36666666666667	0
bin	0.4	0
bin	0.43333333333333	0
bin	0.46666666666667	0
bin	0.5	0
statistic scenarioPRJP1.node[20].wlan.radio 	bitErrorRate:histogram
field count 0
field mean -nan
field stddev -nan
field sum 0
field sqrsum 0
field min -nan
field max -nan
attr source  bitErrorRate
attr title  "Bit error rate, histogram"
bin	-INF	0
bin	-0.5	0
bin	-0.46666666666667	0
bin	-0.43333333333333	0
bin	-0.4	0
bin	-0.36666666666667	0
bin	-0.33333333333333	0
bin	-0.3	0
bin	-0.26666666666667	0
bin	-0.23333333333333	0
bin	-0.2	0
bin	-0.16666666666667	0
bin	-0.13333333333333	0
bin	-0.1	0
bin	-0.066666666666667	0
bin	-0.033333333333333	0
bin	-6.9388939039072e-18	0
bin	0.033333333333333	0
bin	0.066666666666667	0
bin	0.1	0
bin	0.13333333333333	0
bin	0.16666666666667	0
bin	0.2	0
bin	0.23333333333333	0
bin	0.26666666666667	0
bin	0.3	0
bin	0.33333333333333	0
bin	0.36666666666667	0
bin	0.4	0
bin	0.43333333333333	0
bin	0.46666666666667	0
bin	0.5	0
statistic scenarioPRJP1.node[20].wlan.radio 	packetErrorRate:histogram
field count 46816
field mean 0.13225388126245
field stddev 0.33046550514487
field sum 6191.5977051829
field sqrsum 5931.4096037199
field min 0
field max 1
attr source  packetErrorRate
attr title  "Packet error rate, histogram"
bin	-INF	0
bin	-0.5	0
bin	-0.43333333333333	0
bin	-0.36666666666667	0
bin	-0.3	0
bin	-0.23333333333333	0
bin	-0.16666666666667	0
bin	-0.1	0
bin	-0.033333333333333	39544
bin	0.033333333333333	454
bin	0.1	203
bin	0.16666666666667	148
bin	0.23333333333333	112
bin	0.3	85
bin	0.36666666666667	86
bin	0.43333333333333	73
bin	0.5	68
bin	0.56666666666667	68
bin	0.63333333333333	73
bin	0.7	75
bin	0.76666666666667	76
bin	0.83333333333333	83
bin	0.9	149
bin	0.96666666666667	5519
bin	1.0333333333333	0
bin	1.1	0
bin	1.1666666666667	0
bin	1.2333333333333	0
bin	1.3	0
bin	1.3666666666667	0
bin	1.4333333333333	0
bin	1.5	0
statistic scenarioPRJP1.node[20].wlan.radio 	minSNIR:histogram
field count 46816
field mean 3927.8950050764
field stddev 33849.977543567
field sum 183888332.55766
field sqrsum 54363903227601
field min 0.00019391169040964
field max 753239.71923433
attr source  minSNIR
attr title  "Min SNIR, histogram"
bin	-INF	0
bin	-80013.926040988	0
bin	-69345.361308883	0
bin	-58676.796576778	0
bin	-48008.231844673	0
bin	-37339.667112568	0
bin	-26671.102380463	0
bin	-16002.537648358	0
bin	-5333.9729162525	43752
bin	5334.5918158525	1468
bin	16003.156547958	653
bin	26671.721280063	145
bin	37340.286012168	111
bin	48008.850744273	90
bin	58677.415476378	84
bin	69345.980208483	50
bin	80014.544940588	50
bin	90683.109672693	16
bin	101351.6744048	23
bin	112020.2391369	20
bin	122688.80386901	18
bin	133357.36860111	44
bin	144025.93333322	10
bin	154694.49806532	18
bin	165363.06279743	32
bin	176031.62752953	94
bin	186700.19226164	1
bin	197368.75699374	3
bin	208037.32172585	0
bin	218705.88645795	1
bin	229374.45119006	5
bin	240043.01592216	128
scalar scenarioPRJP1.node[20].lo0.lo 	droppedPkBitError:count 	0
attr interpolationmode  none
attr source  dropPkBitError
attr title  "packets dropped/bit error, count"
scalar scenarioPRJP1.node[20].lo0.lo 	droppedPkBitError:sum(packetBytes) 	0
attr interpolationmode  none
attr source  dropPkBitError
attr title  "packets dropped/bit error, sum(packetBytes)"
scalar scenarioPRJP1.node[20].lo0.lo 	rcvdPkFromHL:count 	3
attr interpolationmode  none
attr source  packetReceivedFromUpper
attr title  "packets received from higher layer, count"
scalar scenarioPRJP1.node[20].lo0.lo 	rcvdPkFromHL:sum(packetBytes) 	168
attr interpolationmode  none
attr source  packetReceivedFromUpper
attr title  "packets received from higher layer, sum(packetBytes)"
scalar scenarioPRJP1.node[20].lo0.lo 	passedUpPk:count 	3
attr interpolationmode  none
attr source  packetSentToUpper
attr title  "packets passed to higher layer, count"
scalar scenarioPRJP1.node[20].lo0.lo 	passedUpPk:sum(packetBytes) 	168
attr interpolationmode  none
attr source  packetSentToUpper
attr title  "packets passed to higher layer, sum(packetBytes)"
scalar scenarioPRJP1.node[40].app 	"Total sent" 	2607
scalar scenarioPRJP1.node[40].app 	"Total received" 	179
scalar scenarioPRJP1.node[40].app 	"Total deleted" 	0
scalar scenarioPRJP1.node[40].app 	dropPk:count 	0
attr interpolationmode  none
attr source  dropPk
attr title  "packets dropped, count"
scalar scenarioPRJP1.node[40].app 	dropPk:sum(packetBytes) 	0
attr interpolationmode  none
attr source  dropPk
attr title  "packets dropped, sum(packetBytes)"
scalar scenarioPRJP1.node[40].app 	outOfOrderPk:count 	0
attr interpolationmode  none
attr source  outOfOrderPk
attr title  "packets received out of order, count"
scalar scenarioPRJP1.node[40].app 	outOfOrderPk:sum(packetBytes) 	0
attr interpolationmode  none
attr source  outOfOrderPk
attr title  "packets received out of order, sum(packetBytes)"
scalar scenarioPRJP1.node[40].app 	rcvdPk:count 	179
attr interpolationmode  none
attr source  rcvdPk
attr title  "packets received, count"
scalar scenarioPRJP1.node[40].app 	rcvdPk:sum(packetBytes) 	91648
attr interpolationmode  none
attr source  rcvdPk
attr title  "packets received, sum(packetBytes)"
statistic scenarioPRJP1.node[40].app 	endToEndDelay:histogram
field count 179
field mean 0.087582585793726
field stddev 0.30072961161643
field sum 15.677282857077
field sqrsum 17.471074246771
field min 0.000945022703
field max 2.044219372233
attr interpolationmode  none
attr source  messageAge(rcvdPk)
attr title  "delay, histogram"
attr unit  s
bin	-INF	0
bin	-0.6460672369345	0
bin	-0.5597989356495	0
bin	-0.4735306343645	0
bin	-0.3872623330795	0
bin	-0.3009940317945	0
bin	-0.2147257305095	0
bin	-0.1284574292245	0
bin	-0.0421891279395	152
bin	0.0440791733455	13
bin	0.1303474746305	1
bin	0.2166157759155	1
bin	0.3028840772005	0
bin	0.3891523784855	0
bin	0.4754206797705	1
bin	0.5616889810555	1
bin	0.6479572823405	0
bin	0.7342255836255	2
bin	0.8204938849105	0
bin	0.9067621861955	1
bin	0.9930304874805	3
bin	1.0792987887655	0
bin	1.1655670900505	0
bin	1.2518353913355	2
bin	1.3381036926205	0
bin	1.4243719939055	0
bin	1.5106402951905	0
bin	1.5969085964755	0
bin	1.6831768977605	0
bin	1.7694451990455	0
bin	1.8557135003305	0
bin	1.9419818016155	2
scalar scenarioPRJP1.node[40].app 	sentPk:count 	2607
attr interpolationmode  none
attr source  sentPk
attr title  "packets sent, count"
scalar scenarioPRJP1.node[40].app 	sentPk:sum(packetBytes) 	1334784
attr interpolationmode  none
attr source  sentPk
attr title  "packets sent, sum(packetBytes)"
scalar scenarioPRJP1.node[40].udp 	droppedPkBadChecksum:count 	0
attr interpolationmode  none
attr title  "packets dropped (checksum error), count"
scalar scenarioPRJP1.node[40].udp 	droppedPkWrongPort:count 	0
attr interpolationmode  none
attr title  "packets dropped (wrong port), count"
scalar scenarioPRJP1.node[40].udp 	passedUpPk:count 	179
attr interpolationmode  none
attr title  "packets passed up, count"
scalar scenarioPRJP1.node[40].udp 	rcvdPk:count 	179
attr interpolationmode  none
attr source  rcvdPk
attr title  "packets received, count"
scalar scenarioPRJP1.node[40].udp 	rcvdPk:sum(packetBytes) 	93080
attr interpolationmode  none
attr source  rcvdPk
attr title  "packets received, sum(packetBytes)"
scalar scenarioPRJP1.node[40].udp 	sentPk:count 	2607
attr interpolationmode  none
attr source  sentPk
attr title  "packets sent, count"
scalar scenarioPRJP1.node[40].udp 	sentPk:sum(packetBytes) 	1355640
attr interpolationmode  none
attr source  sentPk
attr title  "packets sent, sum(packetBytes)"
scalar scenarioPRJP1.node[40].networkLayer.arp 	failedARPResolution:count 	8
attr title  "ARP failed resolutions, count"
scalar scenarioPRJP1.node[40].networkLayer.arp 	completedARPResolution:count 	524
attr title  "ARP completed resolutions, count"
scalar scenarioPRJP1.node[40].networkLayer.arp 	initiatedARPResolution:count 	65
attr title  "ARP initiated resolutions, count"
scalar scenarioPRJP1.node[40].networkLayer.arp 	sentReply:count 	49
attr title  "ARP replies sent, count"
scalar scenarioPRJP1.node[40].networkLayer.arp 	sentReq:count 	101
attr title  "ARP request sent, count"
scalar scenarioPRJP1.node[40].mobility 	startTime 	4.9
scalar scenarioPRJP1.node[40].mobility 	totalTime 	945.1
scalar scenarioPRJP1.node[40].mobility 	stopTime 	950
scalar scenarioPRJP1.node[40].mobility 	minSpeed 	2.475555830345e-13
scalar scenarioPRJP1.node[40].mobility 	maxSpeed 	18.854499917135
scalar scenarioPRJP1.node[40].mobility 	totalDistance 	8802.6393758188
scalar scenarioPRJP1.node[40].mobility 	totalCO2Emission 	2572.9486173027
scalar scenarioPRJP1.node[40].wlan.mgmt 	dataQueueLen:max 	2
attr interpolationmode  sample-hold
attr title  "data queue length, max"
scalar scenarioPRJP1.node[40].wlan.mgmt 	dataQueueLen:timeavg 	0
attr interpolationmode  sample-hold
attr title  "data queue length, timeavg"
scalar scenarioPRJP1.node[40].wlan.mgmt 	dropPkByQueue:count 	0
attr interpolationmode  none
attr source  dropPkByQueue
attr title  "packets dropped by queue, count"
scalar scenarioPRJP1.node[40].wlan.mgmt 	dropPkByQueue:sum(packetBytes) 	0
attr interpolationmode  none
attr source  dropPkByQueue
attr title  "packets dropped by queue, sum(packetBytes)"
scalar scenarioPRJP1.node[40].wlan.mac 	"number of received packets" 	1305
scalar scenarioPRJP1.node[40].wlan.mac 	"number of collisions" 	5686
scalar scenarioPRJP1.node[40].wlan.mac 	"number of internal collisions" 	0
scalar scenarioPRJP1.node[40].wlan.mac 	"number of retry for AC 0" 	1785
scalar scenarioPRJP1.node[40].wlan.mac 	"number of retry for AC 1" 	0
scalar scenarioPRJP1.node[40].wlan.mac 	"number of retry for AC 2" 	0
scalar scenarioPRJP1.node[40].wlan.mac 	"number of retry for AC 3" 	0
scalar scenarioPRJP1.node[40].wlan.mac 	"sent and received bits" 	25612768
scalar scenarioPRJP1.node[40].wlan.mac 	"sent packet within AC 0" 	740
scalar scenarioPRJP1.node[40].wlan.mac 	"sent packet within AC 1" 	36
scalar scenarioPRJP1.node[40].wlan.mac 	"sent packet within AC 2" 	0
scalar scenarioPRJP1.node[40].wlan.mac 	"sent packet within AC 3" 	0
scalar scenarioPRJP1.node[40].wlan.mac 	"sent in TXOP " 	0
scalar scenarioPRJP1.node[40].wlan.mac 	"sentWithoutRetry AC 0" 	684
scalar scenarioPRJP1.node[40].wlan.mac 	"sentWithoutRetry AC 1" 	36
scalar scenarioPRJP1.node[40].wlan.mac 	"sentWithoutRetry AC 2" 	0
scalar scenarioPRJP1.node[40].wlan.mac 	"sentWithoutRetry AC 3" 	0
scalar scenarioPRJP1.node[40].wlan.mac 	"numGivenUp AC 0" 	275
scalar scenarioPRJP1.node[40].wlan.mac 	"numGivenUp AC 1" 	0
scalar scenarioPRJP1.node[40].wlan.mac 	"numGivenUp AC 2" 	0
scalar scenarioPRJP1.node[40].wlan.mac 	"numGivenUp AC 3" 	0
scalar scenarioPRJP1.node[40].wlan.mac 	"numDropped AC 0" 	0
scalar scenarioPRJP1.node[40].wlan.mac 	"numDropped AC 1" 	0
scalar scenarioPRJP1.node[40].wlan.mac 	"numDropped AC 2" 	0
scalar scenarioPRJP1.node[40].wlan.mac 	"numDropped AC 3" 	0
scalar scenarioPRJP1.node[40].wlan.mac 	rcvdPkFromLL:count 	47919
attr interpolationmode  none
attr source  packetReceivedFromLower
attr title  "packets received from lower layer, count"
scalar scenarioPRJP1.node[40].wlan.mac 	rcvdPkFromLL:sum(packetBytes) 	28219162
attr interpolationmode  none
attr source  packetReceivedFromLower
attr title  "packets received from lower layer, sum(packetBytes)"
scalar scenarioPRJP1.node[40].wlan.mac 	sentDownPk:count 	6881
attr interpolationmode  none
attr source  packetSentToLower
attr title  "packets sent to lower layer, count"
scalar scenarioPRJP1.node[40].wlan.mac 	sentDownPk:sum(packetBytes) 	4303514
attr interpolationmode  none
attr source  packetSentToLower
attr title  "packets sent to lower layer, sum(packetBytes)"
scalar scenarioPRJP1.node[40].wlan.mac 	rcvdPkFromHL:count 	3791
attr interpolationmode  none
attr source  packetReceivedFromUpper
attr title  "packets received from higher layer, count"
scalar scenarioPRJP1.node[40].wlan.mac 	rcvdPkFromHL:sum(packetBytes) 	3345660
attr interpolationmode  none
attr source  packetReceivedFromUpper
attr title  "packets received from higher layer, sum(packetBytes)"
scalar scenarioPRJP1.node[40].wlan.mac 	passedUpPk:count 	16709
attr interpolationmode  none
attr source  packetSentToUpper
attr title  "packets passed to higher layer, count"
scalar scenarioPRJP1.node[40].wlan.mac 	passedUpPk:sum(packetBytes) 	16507252
attr interpolationmode  none
attr source  packetSentToUpper
attr title  "packets passed to higher layer, sum(packetBytes)"
statistic scenarioPRJP1.node[40].wlan.radio 	radioChannel:histogram
field count 1
field mean 3
field stddev -nan
field sum 3
field sqrsum 9
field min 3
field max 3
attr interpolationmode  sample-hold
attr source  radioChannelChanged
attr title  "Radio channel, histogram"
bin	-INF	0
bin	2	0
bin	3	1
bin	4	0
scalar scenarioPRJP1.node[40].wlan.radio 	transmissionState:count 	27524
attr interpolationmode  sample-hold
attr source  transmissionStateChanged
attr title  "Radio transmission state, count"
scalar scenarioPRJP1.node[40].wlan.radio 	receptionState:count 	110381
attr interpolationmode  sample-hold
attr source  receptionStateChanged
attr title  "Radio reception state, count"
scalar scenarioPRJP1.node[40].wlan.radio 	radioMode:count 	13764
attr interpolationmode  sample-hold
attr source  radioModeChanged
attr title  "Radio mode, count"
statistic scenarioPRJP1.node[40].wlan.radio 	symbolErrorRate:histogram
field count 0
field mean -nan
field stddev -nan
field sum 0
field sqrsum 0
field min -nan
field max -nan
attr source  symbolErrorRate
attr title  "Symbol error rate, histogram"
bin	-INF	0
bin	-0.5	0
bin	-0.46666666666667	0
bin	-0.43333333333333	0
bin	-0.4	0
bin	-0.36666666666667	0
bin	-0.33333333333333	0
bin	-0.3	0
bin	-0.26666666666667	0
bin	-0.23333333333333	0
bin	-0.2	0
bin	-0.16666666666667	0
bin	-0.13333333333333	0
bin	-0.1	0
bin	-0.066666666666667	0
bin	-0.033333333333333	0
bin	-6.9388939039072e-18	0
bin	0.033333333333333	0
bin	0.066666666666667	0
bin	0.1	0
bin	0.13333333333333	0
bin	0.16666666666667	0
bin	0.2	0
bin	0.23333333333333	0
bin	0.26666666666667	0
bin	0.3	0
bin	0.33333333333333	0
bin	0.36666666666667	0
bin	0.4	0
bin	0.43333333333333	0
bin	0.46666666666667	0
bin	0.5	0
statistic scenarioPRJP1.node[40].wlan.radio 	bitErrorRate:histogram
field count 0
field mean -nan
field stddev -nan
field sum 0
field sqrsum 0
field min -nan
field max -nan
attr source  bitErrorRate
attr title  "Bit error rate, histogram"
bin	-INF	0
bin	-0.5	0
bin	-0.46666666666667	0
bin	-0.43333333333333	0
bin	-0.4	0
bin	-0.36666666666667	0
bin	-0.33333333333333	0
bin	-0.3	0
bin	-0.26666666666667	0
bin	-0.23333333333333	0
bin	-0.2	0
bin	-0.16666666666667	0
bin	-0.13333333333333	0
bin	-0.1	0
bin	-0.066666666666667	0
bin	-0.033333333333333	0
bin	-6.9388939039072e-18	0
bin	0.033333333333333	0
bin	0.066666666666667	0
bin	0.1	0
bin	0.13333333333333	0
bin	0.16666666666667	0
bin	0.2	0
bin	0.23333333333333	0
bin	0.26666666666667	0
bin	0.3	0
bin	0.33333333333333	0
bin	0.36666666666667	0
bin	0.4	0
bin	0.43333333333333	0
bin	0.46666666666667	0
bin	0.5	0
statistic scenarioPRJP1.node[40].wlan.radio 	packetErrorRate:histogram
field count 47919
field mean 0.10916096230239
field stddev 0.3037984265707
field sum 5230.884152568
field sqrsum 4993.5275134676
field min 0
field max 1
attr source  packetErrorRate
attr title  "Packet error rate, histogram"
bin	-INF	0
bin	-0.2034957216458	0
bin	-0.1763629587597	0
bin	-0.14923019587359	0
bin	-0.12209743298748	0
bin	-0.094964670101375	0
bin	-0.067831907215268	0
bin	-0.040699144329161	0
bin	-0.013566381443054	41415
bin	0.013566381443054	363
bin	0.040699144329161	188
bin	0.067831907215268	129
bin	0.094964670101375	105
bin	0.12209743298748	71
bin	0.14923019587359	57
bin	0.1763629587597	42
bin	0.2034957216458	53
bin	0.23062848453191	40
bin	0.25776124741802	35
bin	0.28489401030413	49
bin	0.31202677319023	39
bin	0.33915953607634	39
bin	0.36629229896245	28
bin	0.39342506184855	25
bin	0.42055782473466	31
bin	0.44769058762077	29
bin	0.47482335050688	24
bin	0.50195611339298	36
bin	0.52908887627909	18
bin	0.5562216391652	40
bin	0.58335440205131	21
bin	0.61048716493741	5042
statistic scenarioPRJP1.node[40].wlan.radio 	minSNIR:histogram
field count 47919
field mean 4922.7611925279
field stddev 35065.83931021
field sum 235893793.58474
field sqrsum 60081848692937
field min 0.00042916779951802
field max 1291997.5026623
attr source  minSNIR
attr title  "Min SNIR, histogram"
bin	-INF	0
bin	-12846.757904336	0
bin	-11133.564797629	0
bin	-9420.3716909215	0
bin	-7707.1785842144	0
bin	-5993.9854775072	0
bin	-4280.7923708001	0
bin	-2567.5992640929	0
bin	-854.40615738576	38752
bin	858.78694932139	3369
bin	2571.9800560285	1201
bin	4285.1731627357	714
bin	5998.3662694429	406
bin	7711.55937615	343
bin	9424.7524828572	247
bin	11137.945589564	254
bin	12851.138696271	184
bin	14564.331802979	174
bin	16277.524909686	155
bin	17990.718016393	176
bin	19703.9111231	128
bin	21417.104229807	173
bin	23130.297336514	131
bin	24843.490443222	74
bin	26556.683549929	50
bin	28269.876656636	46
bin	29983.069763343	44
bin	31696.26287005	38
bin	33409.455976757	29
bin	35122.649083464	33
bin	36835.842190172	43
bin	38549.035296879	1155
scalar scenarioPRJP1.node[40].lo0.lo 	droppedPkBitError:count 	0
attr interpolationmode  none
attr source  dropPkBitError
attr title  "packets dropped/bit error, count"
scalar scenarioPRJP1.node[40].lo0.lo 	droppedPkBitError:sum(packetBytes) 	0
attr interpolationmode  none
attr source  dropPkBitError
attr title  "packets dropped/bit error, sum(packetBytes)"
scalar scenarioPRJP1.node[40].lo0.lo 	rcvdPkFromHL:count 	6
attr interpolationmode  none
attr source  packetReceivedFromUpper
attr title  "packets received from higher layer, count"
scalar scenarioPRJP1.node[40].lo0.lo 	rcvdPkFromHL:sum(packetBytes) 	336
attr interpolationmode  none
attr source  packetReceivedFromUpper
attr title  "packets received from higher layer, sum(packetBytes)"
scalar scenarioPRJP1.node[40].lo0.lo 	passedUpPk:count 	6
attr interpolationmode  none
attr source  packetSentToUpper
attr title  "packets passed to higher layer, count"
scalar scenarioPRJP1.node[40].lo0.lo 	passedUpPk:sum(packetBytes) 	336
attr interpolationmode  none
attr source  packetSentToUpper
attr title  "packets passed to higher layer, sum(packetBytes)"
scalar scenarioPRJP1.node[61].app 	"Total sent" 	2628
scalar scenarioPRJP1.node[61].app 	"Total received" 	164
scalar scenarioPRJP1.node[61].app 	"Total deleted" 	0
scalar scenarioPRJP1.node[61].app 	dropPk:count 	0
attr interpolationmode  none
attr source  dropPk
attr title  "packets dropped, count"
scalar scenarioPRJP1.node[61].app 	dropPk:sum(packetBytes) 	0
attr interpolationmode  none
attr source  dropPk
attr title  "packets dropped, sum(packetBytes)"
scalar scenarioPRJP1.node[61].app 	outOfOrderPk:count 	0
attr interpolationmode  none
attr source  outOfOrderPk
attr title  "packets received out of order, count"
scalar scenarioPRJP1.node[61].app 	outOfOrderPk:sum(packetBytes) 	0
attr interpolationmode  none
attr source  outOfOrderPk
attr title  "packets received out of order, sum(packetBytes)"
scalar scenarioPRJP1.node[61].app 	rcvdPk:count 	164
attr interpolationmode  none
attr source  rcvdPk
attr title  "packets received, count"
scalar scenarioPRJP1.node[61].app 	rcvdPk:sum(packetBytes) 	83968
attr interpolationmode  none
attr source  rcvdPk
attr title  "packets received, sum(packetBytes)"
statistic scenarioPRJP1.node[61].app 	endToEndDelay:histogram
field count 164
field mean 0.067023501702671
field stddev 0.27568481479132
field sum 10.991854279238
field sqrsum 13.125057652363
field min 0.000945010996
field max 2.016639692797
attr interpolationmode  none
attr source  messageAge(rcvdPk)
attr title  "delay, histogram"
attr unit  s
bin	-INF	0
bin	-0.5100376015675	0
bin	-0.44190658463263	0
bin	-0.37377556769777	0
bin	-0.3056445507629	0
bin	-0.23751353382803	0
bin	-0.16938251689317	0
bin	-0.1012514999583	0
bin	-0.033120483023433	149
bin	0.035010533911433	7
bin	0.1031415508463	0
bin	0.17127256778117	0
bin	0.23940358471603	0
bin	0.3075346016509	0
bin	0.37566561858577	0
bin	0.44379663552063	0
bin	0.5119276524555	0
bin	0.58005866939037	0
bin	0.64818968632523	0
bin	0.7163207032601	1
bin	0.78445172019497	0
bin	0.85258273712983	0
bin	0.9207137540647	0
bin	0.98884477099957	5
bin	1.0569757879344	0
bin	1.1251068048693	0
bin	1.1932378218042	0
bin	1.261368838739	0
bin	1.3294998556739	0
bin	1.3976308726088	0
bin	1.4657618895436	0
bin	1.5338929064785	2
scalar scenarioPRJP1.node[61].app 	sentPk:count 	2628
attr interpolationmode  none
attr source  sentPk
attr title  "packets sent, count"
scalar scenarioPRJP1.node[61].app 	sentPk:sum(packetBytes) 	1345536
attr interpolationmode  none
attr source  sentPk
attr title  "packets sent, sum(packetBytes)"
scalar scenarioPRJP1.node[61].udp 	droppedPkBadChecksum:count 	0
attr interpolationmode  none
attr title  "packets dropped (checksum error), count"
scalar scenarioPRJP1.node[61].udp 	droppedPkWrongPort:count 	0
attr interpolationmode  none
attr title  "packets dropped (wrong port), count"
scalar scenarioPRJP1.node[61].udp 	passedUpPk:count 	164
attr interpolationmode  none
attr title  "packets passed up, count"
scalar scenarioPRJP1.node[61].udp 	rcvdPk:count 	164
attr interpolationmode  none
attr source  rcvdPk
attr title  "packets received, count"
scalar scenarioPRJP1.node[61].udp 	rcvdPk:sum(packetBytes) 	85280
attr interpolationmode  none
attr source  rcvdPk
attr title  "packets received, sum(packetBytes)"
scalar scenarioPRJP1.node[61].udp 	sentPk:count 	2628
attr interpolationmode  none
attr source  sentPk
attr title  "packets sent, count"
scalar scenarioPRJP1.node[61].udp 	sentPk:sum(packetBytes) 	1366560
attr interpolationmode  none
attr source  sentPk
attr title  "packets sent, sum(packetBytes)"
scalar scenarioPRJP1.node[61].networkLayer.arp 	failedARPResolution:count 	5
attr title  "ARP failed resolutions, count"
scalar scenarioPRJP1.node[61].networkLayer.arp 	completedARPResolution:count 	583
attr title  "ARP completed resolutions, count"
scalar scenarioPRJP1.node[61].networkLayer.arp 	initiatedARPResolution:count 	65
attr title  "ARP initiated resolutions, count"
scalar scenarioPRJP1.node[61].networkLayer.arp 	sentReply:count 	45
attr title  "ARP replies sent, count"
scalar scenarioPRJP1.node[61].networkLayer.arp 	sentReq:count 	92
attr title  "ARP request sent, count"
scalar scenarioPRJP1.node[61].mobility 	startTime 	7.3
scalar scenarioPRJP1.node[61].mobility 	totalTime 	942.7
scalar scenarioPRJP1.node[61].mobility 	stopTime 	950
scalar scenarioPRJP1.node[61].mobility 	minSpeed 	2.4757200431245e-13
scalar scenarioPRJP1.node[61].mobility 	maxSpeed 	19.962624786415
scalar scenarioPRJP1.node[61].mobility 	totalDistance 	10824.529915413
scalar scenarioPRJP1.node[61].mobility 	totalCO2Emission 	2840.8564730463
scalar scenarioPRJP1.node[61].wlan.mgmt 	dataQueueLen:max 	0
attr interpolationmode  sample-hold
attr title  "data queue length, max"
scalar scenarioPRJP1.node[61].wlan.mgmt 	dataQueueLen:timeavg 	0
attr interpolationmode  sample-hold
attr title  "data queue length, timeavg"
scalar scenarioPRJP1.node[61].wlan.mgmt 	dropPkByQueue:count 	0
attr interpolationmode  none
attr source  dropPkByQueue
attr title  "packets dropped by queue, count"
scalar scenarioPRJP1.node[61].wlan.mgmt 	dropPkByQueue:sum(packetBytes) 	0
attr interpolationmode  none
attr source  dropPkByQueue
attr title  "packets dropped by queue, sum(packetBytes)"
scalar scenarioPRJP1.node[61].wlan.mac 	"number of received packets" 	1361
scalar scenarioPRJP1.node[61].wlan.mac 	"number of collisions" 	6038
scalar scenarioPRJP1.node[61].wlan.mac 	"number of internal collisions" 	4
scalar scenarioPRJP1.node[61].wlan.mac 	"number of retry for AC 0" 	2098
scalar scenarioPRJP1.node[61].wlan.mac 	"number of retry for AC 1" 	60
scalar scenarioPRJP1.node[61].wlan.mac 	"number of retry for AC 2" 	0
scalar scenarioPRJP1.node[61].wlan.mac 	"number of retry for AC 3" 	0
scalar scenarioPRJP1.node[61].wlan.mac 	"sent and received bits" 	24244576
scalar scenarioPRJP1.node[61].wlan.mac 	"sent packet within AC 0" 	606
scalar scenarioPRJP1.node[61].wlan.mac 	"sent packet within AC 1" 	27
scalar scenarioPRJP1.node[61].wlan.mac 	"sent packet within AC 2" 	0
scalar scenarioPRJP1.node[61].wlan.mac 	"sent packet within AC 3" 	0
scalar scenarioPRJP1.node[61].wlan.mac 	"sent in TXOP " 	0
scalar scenarioPRJP1.node[61].wlan.mac 	"sentWithoutRetry AC 0" 	546
scalar scenarioPRJP1.node[61].wlan.mac 	"sentWithoutRetry AC 1" 	27
scalar scenarioPRJP1.node[61].wlan.mac 	"sentWithoutRetry AC 2" 	0
scalar scenarioPRJP1.node[61].wlan.mac 	"sentWithoutRetry AC 3" 	0
scalar scenarioPRJP1.node[61].wlan.mac 	"numGivenUp AC 0" 	330
scalar scenarioPRJP1.node[61].wlan.mac 	"numGivenUp AC 1" 	10
scalar scenarioPRJP1.node[61].wlan.mac 	"numGivenUp AC 2" 	0
scalar scenarioPRJP1.node[61].wlan.mac 	"numGivenUp AC 3" 	0
scalar scenarioPRJP1.node[61].wlan.mac 	"numDropped AC 0" 	0
scalar scenarioPRJP1.node[61].wlan.mac 	"numDropped AC 1" 	0
scalar scenarioPRJP1.node[61].wlan.mac 	"numDropped AC 2" 	0
scalar scenarioPRJP1.node[61].wlan.mac 	"numDropped AC 3" 	0
scalar scenarioPRJP1.node[61].wlan.mac 	rcvdPkFromLL:count 	58610
attr interpolationmode  none
attr source  packetReceivedFromLower
attr title  "packets received from lower layer, count"
scalar scenarioPRJP1.node[61].wlan.mac 	rcvdPkFromLL:sum(packetBytes) 	32377142
attr interpolationmode  none
attr source  packetReceivedFromLower
attr title  "packets received from lower layer, sum(packetBytes)"
scalar scenarioPRJP1.node[61].wlan.mac 	sentDownPk:count 	7130
attr interpolationmode  none
attr source  packetSentToLower
attr title  "packets sent to lower layer, count"
scalar scenarioPRJP1.node[61].wlan.mac 	sentDownPk:sum(packetBytes) 	4392898
attr interpolationmode  none
attr source  packetSentToLower
attr title  "packets sent to lower layer, sum(packetBytes)"
scalar scenarioPRJP1.node[61].wlan.mac 	rcvdPkFromHL:count 	3615
attr interpolationmode  none
attr source  packetReceivedFromUpper
attr title  "packets received from higher layer, count"
scalar scenarioPRJP1.node[61].wlan.mac 	rcvdPkFromHL:sum(packetBytes) 	3213892
attr interpolationmode  none
attr source  packetReceivedFromUpper
attr title  "packets received from higher layer, sum(packetBytes)"
scalar scenarioPRJP1.node[61].wlan.mac 	passedUpPk:count 	17875
attr interpolationmode  none
attr source  packetSentToUpper
attr title  "packets passed to higher layer, count"
scalar scenarioPRJP1.node[61].wlan.mac 	passedUpPk:sum(packetBytes) 	17745188
attr interpolationmode  none
attr source  packetSentToUpper
attr title  "packets passed to higher layer, sum(packetBytes)"
statistic scenarioPRJP1.node[61].wlan.radio 	radioChannel:histogram
field count 1
field mean 3
field stddev -nan
field sum 3
field sqrsum 9
field min 3
field max 3
attr interpolationmode  sample-hold
attr source  radioChannelChanged
attr title  "Radio channel, histogram"
bin	-INF	0
bin	2	0
bin	3	1
bin	4	0
scalar scenarioPRJP1.node[61].wlan.radio 	transmissionState:count 	28520
attr interpolationmode  sample-hold
attr source  transmissionStateChanged
attr title  "Radio transmission state, count"
scalar scenarioPRJP1.node[61].wlan.radio 	receptionState:count 	132213
attr interpolationmode  sample-hold
attr source  receptionStateChanged
attr title  "Radio reception state, count"
scalar scenarioPRJP1.node[61].wlan.radio 	radioMode:count 	14262
attr interpolationmode  sample-hold
attr source  radioModeChanged
attr title  "Radio mode, count"
statistic scenarioPRJP1.node[61].wlan.radio 	symbolErrorRate:histogram
field count 0
field mean -nan
field stddev -nan
field sum 0
field sqrsum 0
field min -nan
field max -nan
attr source  symbolErrorRate
attr title  "Symbol error rate, histogram"
bin	-INF	0
bin	-0.5	0
bin	-0.46666666666667	0
bin	-0.43333333333333	0
bin	-0.4	0
bin	-0.36666666666667	0
bin	-0.33333333333333	0
bin	-0.3	0
bin	-0.26666666666667	0
bin	-0.23333333333333	0
bin	-0.2	0
bin	-0.16666666666667	0
bin	-0.13333333333333	0
bin	-0.1	0
bin	-0.066666666666667	0
bin	-0.033333333333333	0
bin	-6.9388939039072e-18	0
bin	0.033333333333333	0
bin	0.066666666666667	0
bin	0.1	0
bin	0.13333333333333	0
bin	0.16666666666667	0
bin	0.2	0
bin	0.23333333333333	0
bin	0.26666666666667	0
bin	0.3	0
bin	0.33333333333333	0
bin	0.36666666666667	0
bin	0.4	0
bin	0.43333333333333	0
bin	0.46666666666667	0
bin	0.5	0
statistic scenarioPRJP1.node[61].wlan.radio 	bitErrorRate:histogram
field count 0
field mean -nan
field stddev -nan
field sum 0
field sqrsum 0
field min -nan
field max -nan
attr source  bitErrorRate
attr title  "Bit error rate, histogram"
bin	-INF	0
bin	-0.5	0
bin	-0.46666666666667	0
bin	-0.43333333333333	0
bin	-0.4	0
bin	-0.36666666666667	0
bin	-0.33333333333333	0
bin	-0.3	0
bin	-0.26666666666667	0
bin	-0.23333333333333	0
bin	-0.2	0
bin	-0.16666666666667	0
bin	-0.13333333333333	0
bin	-0.1	0
bin	-0.066666666666667	0
bin	-0.033333333333333	0
bin	-6.9388939039072e-18	0
bin	0.033333333333333	0
bin	0.066666666666667	0
bin	0.1	0
bin	0.13333333333333	0
bin	0.16666666666667	0
bin	0.2	0
bin	0.23333333333333	0
bin	0.26666666666667	0
bin	0.3	0
bin	0.33333333333333	0
bin	0.36666666666667	0
bin	0.4	0
bin	0.43333333333333	0
bin	0.46666666666667	0
bin	0.5	0
statistic scenarioPRJP1.node[61].wlan.radio 	packetErrorRate:histogram
field count 58610
field mean 0.096563892761694
field stddev 0.28807784466813
field sum 5659.6097547629
field sqrsum 5410.4071419272
field min 0
field max 1
attr source  packetErrorRate
attr title  "Packet error rate, histogram"
bin	-INF	0
bin	-0.29712805110268	0
bin	-0.25751097762232	0
bin	-0.21789390414197	0
bin	-0.17827683066161	0
bin	-0.13865975718125	0
bin	-0.099042683700894	0
bin	-0.059425610220536	0
bin	-0.019808536740179	51688
bin	0.019808536740179	435
bin	0.059425610220536	205
bin	0.099042683700894	142
bin	0.13865975718125	100
bin	0.17827683066161	77
bin	0.21789390414197	86
bin	0.25751097762232	74
bin	0.29712805110268	63
bin	0.33674512458304	44
bin	0.3763621980634	40
bin	0.41597927154375	48
bin	0.45559634502411	41
bin	0.49521341850447	37
bin	0.53483049198483	36
bin	0.57444756546518	37
bin	0.61406463894554	30
bin	0.6536817124259	32
bin	0.69329878590626	38
bin	0.73291585938661	36
bin	0.77253293286697	44
bin	0.81215000634733	51
bin	0.85176707982769	47
bin	0.89138415330804	5179
statistic scenarioPRJP1.node[61].wlan.radio 	minSNIR:histogram
field count 58610
field mean 5740.8210085195
field stddev 45100.243595386
field sum 336469519.30933
field sqrsum 1.2114419115341e+14
field min 0.00022215538969909
field max 799104.35588036
attr source  minSNIR
attr title  "Min SNIR, histogram"
bin	-INF	0
bin	-27342.437739582	0
bin	-23696.497867046	0
bin	-20050.55799451	0
bin	-16404.618121973	0
bin	-12758.678249437	0
bin	-9112.7383769006	0
bin	-5466.7985043642	0
bin	-1820.8586318279	50425
bin	1825.0812407084	3313
bin	5471.0211132447	1429
bin	9116.9609857811	645
bin	12762.900858317	490
bin	16408.840730854	319
bin	20054.78060339	300
bin	23700.720475926	179
bin	27346.660348463	87
bin	30992.600220999	78
bin	34638.540093535	80
bin	38284.479966072	82
bin	41930.419838608	63
bin	45576.359711144	30
bin	49222.299583681	58
bin	52868.239456217	26
bin	56514.179328753	35
bin	60160.11920129	28
bin	63806.059073826	26
bin	67451.998946362	16
bin	71097.938818899	31
bin	74743.878691435	21
bin	78389.818563971	15
bin	82035.758436508	834
scalar scenarioPRJP1.node[61].lo0.lo 	droppedPkBitError:count 	0
attr interpolationmode  none
attr source  dropPkBitError
attr title  "packets dropped/bit error, count"
scalar scenarioPRJP1.node[61].lo0.lo 	droppedPkBitError:sum(packetBytes) 	0
attr interpolationmode  none
attr source  dropPkBitError
attr title  "packets dropped/bit error, sum(packetBytes)"
scalar scenarioPRJP1.node[61].lo0.lo 	rcvdPkFromHL:count 	7
attr interpolationmode  none
attr source  packetReceivedFromUpper
attr title  "packets received from higher layer, count"
scalar scenarioPRJP1.node[61].lo0.lo 	rcvdPkFromHL:sum(packetBytes) 	392
attr interpolationmode  none
attr source  packetReceivedFromUpper
attr title  "packets received from higher layer, sum(packetBytes)"
scalar scenarioPRJP1.node[61].lo0.lo 	passedUpPk:count 	7
attr interpolationmode  none
attr source  packetSentToUpper
attr title  "packets passed to higher layer, count"
scalar scenarioPRJP1.node[61].lo0.lo 	passedUpPk:sum(packetBytes) 	392
attr interpolationmode  none
attr source  packetSentToUpper
attr title  "packets passed to higher layer, sum(packetBytes)"
scalar scenarioPRJP1.node[80].app 	"Total sent" 	2606
scalar scenarioPRJP1.node[80].app 	"Total received" 	191
scalar scenarioPRJP1.node[80].app 	"Total deleted" 	0
scalar scenarioPRJP1.node[80].app 	dropPk:count 	0
attr interpolationmode  none
attr source  dropPk
attr title  "packets dropped, count"
scalar scenarioPRJP1.node[80].app 	dropPk:sum(packetBytes) 	0
attr interpolationmode  none
attr source  dropPk
attr title  "packets dropped, sum(packetBytes)"
scalar scenarioPRJP1.node[80].app 	outOfOrderPk:count 	0
attr interpolationmode  none
attr source  outOfOrderPk
attr title  "packets received out of order, count"
scalar scenarioPRJP1.node[80].app 	outOfOrderPk:sum(packetBytes) 	0
attr interpolationmode  none
attr source  outOfOrderPk
attr title  "packets received out of order, sum(packetBytes)"
scalar scenarioPRJP1.node[80].app 	rcvdPk:count 	191
attr interpolationmode  none
attr source  rcvdPk
attr title  "packets received, count"
scalar scenarioPRJP1.node[80].app 	rcvdPk:sum(packetBytes) 	97792
attr interpolationmode  none
attr source  rcvdPk
attr title  "packets received, sum(packetBytes)"
statistic scenarioPRJP1.node[80].app 	endToEndDelay:histogram
field count 191
field mean 0.057723827409429
field stddev 0.21567022580407
field sum 11.025251035201
field sqrsum 9.4740124845938
field min 0.000945010996
field max 1.254359523348
attr interpolationmode  none
attr source  messageAge(rcvdPk)
attr title  "delay, histogram"
attr unit  s
bin	-INF	0
bin	-0.625762199859	0
bin	-0.54220123438313	0
bin	-0.45864026890727	0
bin	-0.3750793034314	0
bin	-0.29151833795553	0
bin	-0.20795737247967	0
bin	-0.1243964070038	0
bin	-0.040835441527933	168
bin	0.042725523947933	14
bin	0.1262864894238	0
bin	0.20984745489967	0
bin	0.29340842037553	0
bin	0.3769693858514	0
bin	0.46053035132727	0
bin	0.54409131680313	1
bin	0.627652282279	0
bin	0.71121324775487	0
bin	0.79477421323073	0
bin	0.8783351787066	0
bin	0.96189614418247	5
bin	1.0454571096583	2
bin	1.1290180751342	0
bin	1.2125790406101	1
bin	1.2961400060859	0
bin	1.3797009715618	0
bin	1.4632619370377	0
bin	1.5468229025135	0
bin	1.6303838679894	0
bin	1.7139448334653	0
bin	1.7975057989411	0
bin	1.881066764417	0
scalar scenarioPRJP1.node[80].app 	sentPk:count 	2606
attr interpolationmode  none
attr source  sentPk
attr title  "packets sent, count"
scalar scenarioPRJP1.node[80].app 	sentPk:sum(packetBytes) 	1334272
attr interpolationmode  none
attr source  sentPk
attr title  "packets sent, sum(packetBytes)"
scalar scenarioPRJP1.node[80].udp 	droppedPkBadChecksum:count 	0
attr interpolationmode  none
attr title  "packets dropped (checksum error), count"
scalar scenarioPRJP1.node[80].udp 	droppedPkWrongPort:count 	0
attr interpolationmode  none
attr title  "packets dropped (wrong port), count"
scalar scenarioPRJP1.node[80].udp 	passedUpPk:count 	191
attr interpolationmode  none
attr title  "packets passed up, count"
scalar scenarioPRJP1.node[80].udp 	rcvdPk:count 	191
attr interpolationmode  none
attr source  rcvdPk
attr title  "packets received, count"
scalar scenarioPRJP1.node[80].udp 	rcvdPk:sum(packetBytes) 	99320
attr interpolationmode  none
attr source  rcvdPk
attr title  "packets received, sum(packetBytes)"
scalar scenarioPRJP1.node[80].udp 	sentPk:count 	2606
attr interpolationmode  none
attr source  sentPk
attr title  "packets sent, count"
scalar scenarioPRJP1.node[80].udp 	sentPk:sum(packetBytes) 	1355120
attr interpolationmode  none
attr source  sentPk
attr title  "packets sent, sum(packetBytes)"
scalar scenarioPRJP1.node[80].networkLayer.arp 	failedARPResolution:count 	15
attr title  "ARP failed resolutions, count"
scalar scenarioPRJP1.node[80].networkLayer.arp 	completedARPResolution:count 	709
attr title  "ARP completed resolutions, count"
scalar scenarioPRJP1.node[80].networkLayer.arp 	initiatedARPResolution:count 	79
attr title  "ARP initiated resolutions, count"
scalar scenarioPRJP1.node[80].networkLayer.arp 	sentReply:count 	65
attr title  "ARP replies sent, count"
scalar scenarioPRJP1.node[80].networkLayer.arp 	sentReq:count 	132
attr title  "ARP request sent, count"
scalar scenarioPRJP1.node[80].mobility 	startTime 	9.7
scalar scenarioPRJP1.node[80].mobility 	totalTime 	940.3
scalar scenarioPRJP1.node[80].mobility 	stopTime 	950
scalar scenarioPRJP1.node[80].mobility 	minSpeed 	2.4756321964112e-13
scalar scenarioPRJP1.node[80].mobility 	maxSpeed 	18.200477980793
scalar scenarioPRJP1.node[80].mobility 	totalDistance 	8495.2900348433
scalar scenarioPRJP1.node[80].mobility 	totalCO2Emission 	2486.0363586524
scalar scenarioPRJP1.node[80].wlan.mgmt 	dataQueueLen:max 	1
attr interpolationmode  sample-hold
attr title  "data queue length, max"
scalar scenarioPRJP1.node[80].wlan.mgmt 	dataQueueLen:timeavg 	0
attr interpolationmode  sample-hold
attr title  "data queue length, timeavg"
scalar scenarioPRJP1.node[80].wlan.mgmt 	dropPkByQueue:count 	0
attr interpolationmode  none
attr source  dropPkByQueue
attr title  "packets dropped by queue, count"
scalar scenarioPRJP1.node[80].wlan.mgmt 	dropPkByQueue:sum(packetBytes) 	0
attr interpolationmode  none
attr source  dropPkByQueue
attr title  "packets dropped by queue, sum(packetBytes)"
scalar scenarioPRJP1.node[80].wlan.mac 	"number of received packets" 	2332
scalar scenarioPRJP1.node[80].wlan.mac 	"number of collisions" 	7638
scalar scenarioPRJP1.node[80].wlan.mac 	"number of internal collisions" 	2
scalar scenarioPRJP1.node[80].wlan.mac 	"number of retry for AC 0" 	2817
scalar scenarioPRJP1.node[80].wlan.mac 	"number of retry for AC 1" 	49
scalar scenarioPRJP1.node[80].wlan.mac 	"number of retry for AC 2" 	0
scalar scenarioPRJP1.node[80].wlan.mac 	"number of retry for AC 3" 	0
scalar scenarioPRJP1.node[80].wlan.mac 	"sent and received bits" 	31381792
scalar scenarioPRJP1.node[80].wlan.mac 	"sent packet within AC 0" 	1261
scalar scenarioPRJP1.node[80].wlan.mac 	"sent packet within AC 1" 	47
scalar scenarioPRJP1.node[80].wlan.mac 	"sent packet within AC 2" 	0
scalar scenarioPRJP1.node[80].wlan.mac 	"sent packet within AC 3" 	0
scalar scenarioPRJP1.node[80].wlan.mac 	"sent in TXOP " 	0
scalar scenarioPRJP1.node[80].wlan.mac 	"sentWithoutRetry AC 0" 	1187
scalar scenarioPRJP1.node[80].wlan.mac 	"sentWithoutRetry AC 1" 	46
scalar scenarioPRJP1.node[80].wlan.mac 	"sentWithoutRetry AC 2" 	0
scalar scenarioPRJP1.node[80].wlan.mac 	"sentWithoutRetry AC 3" 	0
scalar scenarioPRJP1.node[80].wlan.mac 	"numGivenUp AC 0" 	443
scalar scenarioPRJP1.node[80].wlan.mac 	"numGivenUp AC 1" 	8
scalar scenarioPRJP1.node[80].wlan.mac 	"numGivenUp AC 2" 	0
scalar scenarioPRJP1.node[80].wlan.mac 	"numGivenUp AC 3" 	0
scalar scenarioPRJP1.node[80].wlan.mac 	"numDropped AC 0" 	0
scalar scenarioPRJP1.node[80].wlan.mac 	"numDropped AC 1" 	0
scalar scenarioPRJP1.node[80].wlan.mac 	"numDropped AC 2" 	0
scalar scenarioPRJP1.node[80].wlan.mac 	"numDropped AC 3" 	0
scalar scenarioPRJP1.node[80].wlan.mac 	rcvdPkFromLL:count 	68097
attr interpolationmode  none
attr source  packetReceivedFromLower
attr title  "packets received from lower layer, count"
scalar scenarioPRJP1.node[80].wlan.mac 	rcvdPkFromLL:sum(packetBytes) 	38405492
attr interpolationmode  none
attr source  packetReceivedFromLower
attr title  "packets received from lower layer, sum(packetBytes)"
scalar scenarioPRJP1.node[80].wlan.mac 	sentDownPk:count 	10128
attr interpolationmode  none
attr source  packetSentToLower
attr title  "packets sent to lower layer, count"
scalar scenarioPRJP1.node[80].wlan.mac 	sentDownPk:sum(packetBytes) 	5717416
attr interpolationmode  none
attr source  packetSentToLower
attr title  "packets sent to lower layer, sum(packetBytes)"
scalar scenarioPRJP1.node[80].wlan.mac 	rcvdPkFromHL:count 	4932
attr interpolationmode  none
attr source  packetReceivedFromUpper
attr title  "packets received from higher layer, count"
scalar scenarioPRJP1.node[80].wlan.mac 	rcvdPkFromHL:sum(packetBytes) 	4162244
attr interpolationmode  none
attr source  packetReceivedFromUpper
attr title  "packets received from higher layer, sum(packetBytes)"
scalar scenarioPRJP1.node[80].wlan.mac 	passedUpPk:count 	21671
attr interpolationmode  none
attr source  packetSentToUpper
attr title  "packets passed to higher layer, count"
scalar scenarioPRJP1.node[80].wlan.mac 	passedUpPk:sum(packetBytes) 	21249632
attr interpolationmode  none
attr source  packetSentToUpper
attr title  "packets passed to higher layer, sum(packetBytes)"
statistic scenarioPRJP1.node[80].wlan.radio 	radioChannel:histogram
field count 1
field mean 3
field stddev -nan
field sum 3
field sqrsum 9
field min 3
field max 3
attr interpolationmode  sample-hold
attr source  radioChannelChanged
attr title  "Radio channel, histogram"
bin	-INF	0
bin	2	0
bin	3	1
bin	4	0
scalar scenarioPRJP1.node[80].wlan.radio 	transmissionState:count 	40512
attr interpolationmode  sample-hold
attr source  transmissionStateChanged
attr title  "Radio transmission state, count"
scalar scenarioPRJP1.node[80].wlan.radio 	receptionState:count 	157683
attr interpolationmode  sample-hold
attr source  receptionStateChanged
attr title  "Radio reception state, count"
scalar scenarioPRJP1.node[80].wlan.radio 	radioMode:count 	20258
attr interpolationmode  sample-hold
attr source  radioModeChanged
attr title  "Radio mode, count"
statistic scenarioPRJP1.node[80].wlan.radio 	symbolErrorRate:histogram
field count 0
field mean -nan
field stddev -nan
field sum 0
field sqrsum 0
field min -nan
field max -nan
attr source  symbolErrorRate
attr title  "Symbol error rate, histogram"
bin	-INF	0
bin	-0.5	0
bin	-0.46666666666667	0
bin	-0.43333333333333	0
bin	-0.4	0
bin	-0.36666666666667	0
bin	-0.33333333333333	0
bin	-0.3	0
bin	-0.26666666666667	0
bin	-0.23333333333333	0
bin	-0.2	0
bin	-0.16666666666667	0
bin	-0.13333333333333	0
bin	-0.1	0
bin	-0.066666666666667	0
bin	-0.033333333333333	0
bin	-6.9388939039072e-18	0
bin	0.033333333333333	0
bin	0.066666666666667	0
bin	0.1	0
bin	0.13333333333333	0
bin	0.16666666666667	0
bin	0.2	0
bin	0.23333333333333	0
bin	0.26666666666667	0
bin	0.3	0
bin	0.33333333333333	0
bin	0.36666666666667	0
bin	0.4	0
bin	0.43333333333333	0
bin	0.46666666666667	0
bin	0.5	0
statistic scenarioPRJP1.node[80].wlan.radio 	bitErrorRate:histogram
field count 0
field mean -nan
field stddev -nan
field sum 0
field sqrsum 0
field min -nan
field max -nan
attr source  bitErrorRate
attr title  "Bit error rate, histogram"
bin	-INF	0
bin	-0.5	0
bin	-0.46666666666667	0
bin	-0.43333333333333	0
bin	-0.4	0
bin	-0.36666666666667	0
bin	-0.33333333333333	0
bin	-0.3	0
bin	-0.26666666666667	0
bin	-0.23333333333333	0
bin	-0.2	0
bin	-0.16666666666667	0
bin	-0.13333333333333	0
bin	-0.1	0
bin	-0.066666666666667	0
bin	-0.033333333333333	0
bin	-6.9388939039072e-18	0
bin	0.033333333333333	0
bin	0.066666666666667	0
bin	0.1	0
bin	0.13333333333333	0
bin	0.16666666666667	0
bin	0.2	0
bin	0.23333333333333	0
bin	0.26666666666667	0
bin	0.3	0
bin	0.33333333333333	0
bin	0.36666666666667	0
bin	0.4	0
bin	0.43333333333333	0
bin	0.46666666666667	0
bin	0.5	0
statistic scenarioPRJP1.node[80].wlan.radio 	packetErrorRate:histogram
field count 68097
field mean 0.10401296127311
field stddev 0.29768708339893
field sum 7082.9706238148
field sqrsum 6771.2248130912
field min 0
field max 1
attr source  packetErrorRate
attr title  "Packet error rate, histogram"
bin	-INF	0
bin	-0.49999439152799	0
bin	-0.43332847265759	0
bin	-0.3666625537872	0
bin	-0.2999966349168	0
bin	-0.2333307160464	0
bin	-0.166664797176	0
bin	-0.099998878305599	0
bin	-0.0333329594352	59716
bin	0.0333329594352	532
bin	0.099998878305599	261
bin	0.166664797176	168
bin	0.2333307160464	136
bin	0.2999966349168	132
bin	0.3666625537872	101
bin	0.43332847265759	86
bin	0.49999439152799	77
bin	0.56666031039839	87
bin	0.63332622926879	72
bin	0.69999214813919	65
bin	0.76665806700959	96
bin	0.83332398587999	111
bin	0.89998990475039	155
bin	0.96665582362079	6302
bin	1.0333217424912	0
bin	1.0999876613616	0
bin	1.166653580232	0
bin	1.2333194991024	0
bin	1.2999854179728	0
bin	1.3666513368432	0
bin	1.4333172557136	0
bin	1.499983174584	0
statistic scenarioPRJP1.node[80].wlan.radio 	minSNIR:histogram
field count 68097
field mean 6351.8920433329
field stddev 44653.04226068
field sum 432544792.47484
field sqrsum 1.3852369612041e+14
field min 0.00067347317900831
field max 1174248.8351547
attr source  minSNIR
attr title  "Min SNIR, histogram"
bin	-INF	0
bin	-14485.236113794	0
bin	-12553.633530062	0
bin	-10622.03094633	0
bin	-8690.4283625978	0
bin	-6758.8257788657	0
bin	-4827.2231951336	0
bin	-2895.6206114016	0
bin	-964.01802766951	54481
bin	967.58455606255	4934
bin	2899.1871397946	1673
bin	4830.7897235267	901
bin	6762.3923072587	782
bin	8693.9948909908	450
bin	10625.597474723	617
bin	12557.200058455	401
bin	14488.802642187	273
bin	16420.405225919	236
bin	18352.007809651	227
bin	20283.610393383	376
bin	22215.212977115	198
bin	24146.815560847	196
bin	26078.418144579	150
bin	28010.020728311	70
bin	29941.623312043	60
bin	31873.225895776	67
bin	33804.828479508	61
bin	35736.43106324	38
bin	37668.033646972	63
bin	39599.636230704	49
bin	41531.238814436	29
bin	43462.841398168	1765
scalar scenarioPRJP1.node[80].lo0.lo 	droppedPkBitError:count 	0
attr interpolationmode  none
attr source  dropPkBitError
attr title  "packets dropped/bit error, count"
scalar scenarioPRJP1.node[80].lo0.lo 	droppedPkBitError:sum(packetBytes) 	0
attr interpolationmode  none
attr source  dropPkBitError
attr title  "packets dropped/bit error, sum(packetBytes)"
scalar scenarioPRJP1.node[80].lo0.lo 	rcvdPkFromHL:count 	12
attr interpolationmode  none
attr source  packetReceivedFromUpper
attr title  "packets received from higher layer, count"
scalar scenarioPRJP1.node[80].lo0.lo 	rcvdPkFromHL:sum(packetBytes) 	672
attr interpolationmode  none
attr source  packetReceivedFromUpper
attr title  "packets received from higher layer, sum(packetBytes)"
scalar scenarioPRJP1.node[80].lo0.lo 	passedUpPk:count 	12
attr interpolationmode  none
attr source  packetSentToUpper
attr title  "packets passed to higher layer, count"
scalar scenarioPRJP1.node[80].lo0.lo 	passedUpPk:sum(packetBytes) 	672
attr interpolationmode  none
attr source  packetSentToUpper
attr title  "packets passed to higher layer, sum(packetBytes)"
scalar scenarioPRJP1.node[1].app 	"Total sent" 	2605
scalar scenarioPRJP1.node[1].app 	"Total received" 	176
scalar scenarioPRJP1.node[1].app 	"Total deleted" 	0
scalar scenarioPRJP1.node[1].app 	dropPk:count 	0
attr interpolationmode  none
attr source  dropPk
attr title  "packets dropped, count"
scalar scenarioPRJP1.node[1].app 	dropPk:sum(packetBytes) 	0
attr interpolationmode  none
attr source  dropPk
attr title  "packets dropped, sum(packetBytes)"
scalar scenarioPRJP1.node[1].app 	outOfOrderPk:count 	0
attr interpolationmode  none
attr source  outOfOrderPk
attr title  "packets received out of order, count"
scalar scenarioPRJP1.node[1].app 	outOfOrderPk:sum(packetBytes) 	0
attr interpolationmode  none
attr source  outOfOrderPk
attr title  "packets received out of order, sum(packetBytes)"
scalar scenarioPRJP1.node[1].app 	rcvdPk:count 	176
attr interpolationmode  none
attr source  rcvdPk
attr title  "packets received, count"
scalar scenarioPRJP1.node[1].app 	rcvdPk:sum(packetBytes) 	90112
attr interpolationmode  none
attr source  rcvdPk
attr title  "packets received, sum(packetBytes)"
statistic scenarioPRJP1.node[1].app 	endToEndDelay:histogram
field count 176
field mean 0.098284153953648
field stddev 0.33202463472112
field sum 17.298011095842
field sqrsum 20.992183046432
field min 0.000945076376
field max 2.030772499692
attr interpolationmode  none
attr source  messageAge(rcvdPk)
attr title  "delay, histogram"
attr unit  s
bin	-INF	0
bin	-0.760056546723	0
bin	-0.65858965974607	0
bin	-0.55712277276913	0
bin	-0.4556558857922	0
bin	-0.35418899881527	0
bin	-0.25272211183833	0
bin	-0.1512552248614	0
bin	-0.049788337884467	157
bin	0.051678549092467	5
bin	0.1531454360694	0
bin	0.25461232304633	1
bin	0.35607921002327	0
bin	0.4575460970002	0
bin	0.55901298397713	0
bin	0.66047987095407	1
bin	0.761946757931	1
bin	0.86341364490793	0
bin	0.96488053188487	6
bin	1.0663474188618	1
bin	1.1678143058387	0
bin	1.2692811928157	1
bin	1.3707480797926	0
bin	1.4722149667695	1
bin	1.5736818537465	0
bin	1.6751487407234	0
bin	1.7766156277003	0
bin	1.8780825146773	0
bin	1.9795494016542	2
bin	2.0810162886311	0
bin	2.1824831756081	0
bin	2.283950062585	0
scalar scenarioPRJP1.node[1].app 	sentPk:count 	2605
attr interpolationmode  none
attr source  sentPk
attr title  "packets sent, count"
scalar scenarioPRJP1.node[1].app 	sentPk:sum(packetBytes) 	1333760
attr interpolationmode  none
attr source  sentPk
attr title  "packets sent, sum(packetBytes)"
scalar scenarioPRJP1.node[1].udp 	droppedPkBadChecksum:count 	0
attr interpolationmode  none
attr title  "packets dropped (checksum error), count"
scalar scenarioPRJP1.node[1].udp 	droppedPkWrongPort:count 	0
attr interpolationmode  none
attr title  "packets dropped (wrong port), count"
scalar scenarioPRJP1.node[1].udp 	passedUpPk:count 	176
attr interpolationmode  none
attr title  "packets passed up, count"
scalar scenarioPRJP1.node[1].udp 	rcvdPk:count 	176
attr interpolationmode  none
attr source  rcvdPk
attr title  "packets received, count"
scalar scenarioPRJP1.node[1].udp 	rcvdPk:sum(packetBytes) 	91520
attr interpolationmode  none
attr source  rcvdPk
attr title  "packets received, sum(packetBytes)"
scalar scenarioPRJP1.node[1].udp 	sentPk:count 	2605
attr interpolationmode  none
attr source  sentPk
attr title  "packets sent, count"
scalar scenarioPRJP1.node[1].udp 	sentPk:sum(packetBytes) 	1354600
attr interpolationmode  none
attr source  sentPk
attr title  "packets sent, sum(packetBytes)"
scalar scenarioPRJP1.node[1].networkLayer.arp 	failedARPResolution:count 	24
attr title  "ARP failed resolutions, count"
scalar scenarioPRJP1.node[1].networkLayer.arp 	completedARPResolution:count 	529
attr title  "ARP completed resolutions, count"
scalar scenarioPRJP1.node[1].networkLayer.arp 	initiatedARPResolution:count 	88
attr title  "ARP initiated resolutions, count"
scalar scenarioPRJP1.node[1].networkLayer.arp 	sentReply:count 	54
attr title  "ARP replies sent, count"
scalar scenarioPRJP1.node[1].networkLayer.arp 	sentReq:count 	150
attr title  "ARP request sent, count"
scalar scenarioPRJP1.node[1].mobility 	startTime 	0.1
scalar scenarioPRJP1.node[1].mobility 	totalTime 	949.9
scalar scenarioPRJP1.node[1].mobility 	stopTime 	950
scalar scenarioPRJP1.node[1].mobility 	minSpeed 	2.4755636547305e-13
scalar scenarioPRJP1.node[1].mobility 	maxSpeed 	21.671991095052
scalar scenarioPRJP1.node[1].mobility 	totalDistance 	10466.095866546
scalar scenarioPRJP1.node[1].mobility 	totalCO2Emission 	3033.6033112675
scalar scenarioPRJP1.node[1].wlan.mgmt 	dataQueueLen:max 	0
attr interpolationmode  sample-hold
attr title  "data queue length, max"
scalar scenarioPRJP1.node[1].wlan.mgmt 	dataQueueLen:timeavg 	0
attr interpolationmode  sample-hold
attr title  "data queue length, timeavg"
scalar scenarioPRJP1.node[1].wlan.mgmt 	dropPkByQueue:count 	0
attr interpolationmode  none
attr source  dropPkByQueue
attr title  "packets dropped by queue, count"
scalar scenarioPRJP1.node[1].wlan.mgmt 	dropPkByQueue:sum(packetBytes) 	0
attr interpolationmode  none
attr source  dropPkByQueue
attr title  "packets dropped by queue, sum(packetBytes)"
scalar scenarioPRJP1.node[1].wlan.mac 	"number of received packets" 	1741
scalar scenarioPRJP1.node[1].wlan.mac 	"number of collisions" 	5630
scalar scenarioPRJP1.node[1].wlan.mac 	"number of internal collisions" 	0
scalar scenarioPRJP1.node[1].wlan.mac 	"number of retry for AC 0" 	2457
scalar scenarioPRJP1.node[1].wlan.mac 	"number of retry for AC 1" 	95
scalar scenarioPRJP1.node[1].wlan.mac 	"number of retry for AC 2" 	0
scalar scenarioPRJP1.node[1].wlan.mac 	"number of retry for AC 3" 	0
scalar scenarioPRJP1.node[1].wlan.mac 	"sent and received bits" 	26921984
scalar scenarioPRJP1.node[1].wlan.mac 	"sent packet within AC 0" 	703
scalar scenarioPRJP1.node[1].wlan.mac 	"sent packet within AC 1" 	37
scalar scenarioPRJP1.node[1].wlan.mac 	"sent packet within AC 2" 	0
scalar scenarioPRJP1.node[1].wlan.mac 	"sent packet within AC 3" 	0
scalar scenarioPRJP1.node[1].wlan.mac 	"sent in TXOP " 	0
scalar scenarioPRJP1.node[1].wlan.mac 	"sentWithoutRetry AC 0" 	662
scalar scenarioPRJP1.node[1].wlan.mac 	"sentWithoutRetry AC 1" 	35
scalar scenarioPRJP1.node[1].wlan.mac 	"sentWithoutRetry AC 2" 	0
scalar scenarioPRJP1.node[1].wlan.mac 	"sentWithoutRetry AC 3" 	0
scalar scenarioPRJP1.node[1].wlan.mac 	"numGivenUp AC 0" 	394
scalar scenarioPRJP1.node[1].wlan.mac 	"numGivenUp AC 1" 	15
scalar scenarioPRJP1.node[1].wlan.mac 	"numGivenUp AC 2" 	0
scalar scenarioPRJP1.node[1].wlan.mac 	"numGivenUp AC 3" 	0
scalar scenarioPRJP1.node[1].wlan.mac 	"numDropped AC 0" 	0
scalar scenarioPRJP1.node[1].wlan.mac 	"numDropped AC 1" 	0
scalar scenarioPRJP1.node[1].wlan.mac 	"numDropped AC 2" 	0
scalar scenarioPRJP1.node[1].wlan.mac 	"numDropped AC 3" 	0
scalar scenarioPRJP1.node[1].wlan.mac 	rcvdPkFromLL:count 	46498
attr interpolationmode  none
attr source  packetReceivedFromLower
attr title  "packets received from lower layer, count"
scalar scenarioPRJP1.node[1].wlan.mac 	rcvdPkFromLL:sum(packetBytes) 	27516260
attr interpolationmode  none
attr source  packetReceivedFromLower
attr title  "packets received from lower layer, sum(packetBytes)"
scalar scenarioPRJP1.node[1].wlan.mac 	sentDownPk:count 	8406
attr interpolationmode  none
attr source  packetSentToLower
attr title  "packets sent to lower layer, count"
scalar scenarioPRJP1.node[1].wlan.mac 	sentDownPk:sum(packetBytes) 	4946174
attr interpolationmode  none
attr source  packetSentToLower
attr title  "packets sent to lower layer, sum(packetBytes)"
scalar scenarioPRJP1.node[1].wlan.mac 	rcvdPkFromHL:count 	4113
attr interpolationmode  none
attr source  packetReceivedFromUpper
attr title  "packets received from higher layer, count"
scalar scenarioPRJP1.node[1].wlan.mac 	rcvdPkFromHL:sum(packetBytes) 	3580260
attr interpolationmode  none
attr source  packetReceivedFromUpper
attr title  "packets received from higher layer, sum(packetBytes)"
scalar scenarioPRJP1.node[1].wlan.mac 	passedUpPk:count 	16606
attr interpolationmode  none
attr source  packetSentToUpper
attr title  "packets passed to higher layer, count"
scalar scenarioPRJP1.node[1].wlan.mac 	passedUpPk:sum(packetBytes) 	16353484
attr interpolationmode  none
[...]
attr interpolationmode  none
attr source  packetSentToLower
attr title  "packets sent to lower layer, sum(packetBytes)"
scalar scenarioPRJP1.node[76].wlan.mac 	rcvdPkFromHL:count 	4053
attr interpolationmode  none
attr source  packetReceivedFromUpper
attr title  "packets received from higher layer, count"
scalar scenarioPRJP1.node[76].wlan.mac 	rcvdPkFromHL:sum(packetBytes) 	3559668
attr interpolationmode  none
attr source  packetReceivedFromUpper
attr title  "packets received from higher layer, sum(packetBytes)"
scalar scenarioPRJP1.node[76].wlan.mac 	passedUpPk:count 	17398
attr interpolationmode  none
attr source  packetSentToUpper
attr title  "packets passed to higher layer, count"
scalar scenarioPRJP1.node[76].wlan.mac 	passedUpPk:sum(packetBytes) 	17236360
attr interpolationmode  none
attr source  packetSentToUpper
attr title  "packets passed to higher layer, sum(packetBytes)"
statistic scenarioPRJP1.node[76].wlan.radio 	radioChannel:histogram
field count 1
field mean 3
field stddev -nan
field sum 3
field sqrsum 9
field min 3
field max 3
attr interpolationmode  sample-hold
attr source  radioChannelChanged
attr title  "Radio channel, histogram"
bin	-INF	0
bin	2	0
bin	3	1
bin	4	0
scalar scenarioPRJP1.node[76].wlan.radio 	transmissionState:count 	33228
attr interpolationmode  sample-hold
attr source  transmissionStateChanged
attr title  "Radio transmission state, count"
scalar scenarioPRJP1.node[76].wlan.radio 	receptionState:count 	117050
attr interpolationmode  sample-hold
attr source  receptionStateChanged
attr title  "Radio reception state, count"
scalar scenarioPRJP1.node[76].wlan.radio 	radioMode:count 	16616
attr interpolationmode  sample-hold
attr source  radioModeChanged
attr title  "Radio mode, count"
statistic scenarioPRJP1.node[76].wlan.radio 	symbolErrorRate:histogram
field count 0
field mean -nan
field stddev -nan
field sum 0
field sqrsum 0
field min -nan
field max -nan
attr source  symbolErrorRate
attr title  "Symbol error rate, histogram"
bin	-INF	0
bin	-0.5	0
bin	-0.46666666666667	0
bin	-0.43333333333333	0
bin	-0.4	0
bin	-0.36666666666667	0
bin	-0.33333333333333	0
bin	-0.3	0
bin	-0.26666666666667	0
bin	-0.23333333333333	0
bin	-0.2	0
bin	-0.16666666666667	0
bin	-0.13333333333333	0
bin	-0.1	0
bin	-0.066666666666667	0
bin	-0.033333333333333	0
bin	-6.9388939039072e-18	0
bin	0.033333333333333	0
bin	0.066666666666667	0
bin	0.1	0
bin	0.13333333333333	0
bin	0.16666666666667	0
bin	0.2	0
bin	0.23333333333333	0
bin	0.26666666666667	0
bin	0.3	0
bin	0.33333333333333	0
bin	0.36666666666667	0
bin	0.4	0
bin	0.43333333333333	0
bin	0.46666666666667	0
bin	0.5	0
statistic scenarioPRJP1.node[76].wlan.radio 	bitErrorRate:histogram
field count 0
field mean -nan
field stddev -nan
field sum 0
field sqrsum 0
field min -nan
field max -nan
attr source  bitErrorRate
attr title  "Bit error rate, histogram"
bin	-INF	0
bin	-0.5	0
bin	-0.46666666666667	0
bin	-0.43333333333333	0
bin	-0.4	0
bin	-0.36666666666667	0
bin	-0.33333333333333	0
bin	-0.3	0
bin	-0.26666666666667	0
bin	-0.23333333333333	0
bin	-0.2	0
bin	-0.16666666666667	0
bin	-0.13333333333333	0
bin	-0.1	0
bin	-0.066666666666667	0
bin	-0.033333333333333	0
bin	-6.9388939039072e-18	0
bin	0.033333333333333	0
bin	0.066666666666667	0
bin	0.1	0
bin	0.13333333333333	0
bin	0.16666666666667	0
bin	0.2	0
bin	0.23333333333333	0
bin	0.26666666666667	0
bin	0.3	0
bin	0.33333333333333	0
bin	0.36666666666667	0
bin	0.4	0
bin	0.43333333333333	0
bin	0.46666666666667	0
bin	0.5	0
statistic scenarioPRJP1.node[76].wlan.radio 	packetErrorRate:histogram
field count 49717
field mean 0.11893962908415
field stddev 0.31535235033867
field sum 5913.3215391765
field sqrsum 5647.4405359498
field min 0
field max 1
attr source  packetErrorRate
attr title  "Packet error rate, histogram"
bin	-INF	0
bin	-0.5	0
bin	-0.46666666666667	0
bin	-0.43333333333333	0
bin	-0.4	0
bin	-0.36666666666667	0
bin	-0.33333333333333	0
bin	-0.3	0
bin	-0.26666666666667	0
bin	-0.23333333333333	0
bin	-0.2	0
bin	-0.16666666666667	0
bin	-0.13333333333333	0
bin	-0.1	0
bin	-0.066666666666667	0
bin	-0.033333333333333	0
bin	-6.9388939039072e-18	42705
bin	0.033333333333333	294
bin	0.066666666666667	170
bin	0.1	126
bin	0.13333333333333	79
bin	0.16666666666667	80
bin	0.2	64
bin	0.23333333333333	61
bin	0.26666666666667	51
bin	0.3	49
bin	0.33333333333333	51
bin	0.36666666666667	34
bin	0.4	37
bin	0.43333333333333	47
bin	0.46666666666667	48
bin	0.5	5821
statistic scenarioPRJP1.node[76].wlan.radio 	minSNIR:histogram
field count 49717
field mean 5664.6876958676
field stddev 133336.61351977
field sum 281631278.17545
field sqrsum 8.8547884117083e+14
field min 0.00017081161611036
field max 24752639.537338
attr source  minSNIR
attr title  "Min SNIR, histogram"
bin	-INF	0
bin	-18172.730249837	0
bin	-15747.546962337	0
bin	-13322.363674838	0
bin	-10897.180387339	0
bin	-8471.9970998396	0
bin	-6046.8138123403	0
bin	-3621.630524841	0
bin	-1196.4472373418	42593
bin	1228.7360501575	2786
bin	3653.9193376568	921
bin	6079.102625156	582
bin	8504.2859126553	378
bin	10929.469200155	379
bin	13354.652487654	205
bin	15779.835775153	208
bin	18205.019062652	150
bin	20630.202350152	129
bin	23055.385637651	132
bin	25480.56892515	56
bin	27905.752212649	35
bin	30330.935500149	43
bin	32756.118787648	45
bin	35181.302075147	30
bin	37606.485362647	31
bin	40031.668650146	29
bin	42456.851937645	59
bin	44882.035225144	30
bin	47307.218512644	31
bin	49732.401800143	27
bin	52157.585087642	24
bin	54582.768375141	814
scalar scenarioPRJP1.node[76].lo0.lo 	droppedPkBitError:count 	0
attr interpolationmode  none
attr source  dropPkBitError
attr title  "packets dropped/bit error, count"
scalar scenarioPRJP1.node[76].lo0.lo 	droppedPkBitError:sum(packetBytes) 	0
attr interpolationmode  none
attr source  dropPkBitError
attr title  "packets dropped/bit error, sum(packetBytes)"
scalar scenarioPRJP1.node[76].lo0.lo 	rcvdPkFromHL:count 	5
attr interpolationmode  none
attr source  packetReceivedFromUpper
attr title  "packets received from higher layer, count"
scalar scenarioPRJP1.node[76].lo0.lo 	rcvdPkFromHL:sum(packetBytes) 	280
attr interpolationmode  none
attr source  packetReceivedFromUpper
attr title  "packets received from higher layer, sum(packetBytes)"
scalar scenarioPRJP1.node[76].lo0.lo 	passedUpPk:count 	5
attr interpolationmode  none
attr source  packetSentToUpper
attr title  "packets passed to higher layer, count"
scalar scenarioPRJP1.node[76].lo0.lo 	passedUpPk:sum(packetBytes) 	280
attr interpolationmode  none
attr source  packetSentToUpper
attr title  "packets passed to higher layer, sum(packetBytes)"
scalar scenarioPRJP1.node[98].app 	"Total sent" 	2619
scalar scenarioPRJP1.node[98].app 	"Total received" 	164
scalar scenarioPRJP1.node[98].app 	"Total deleted" 	0
scalar scenarioPRJP1.node[98].app 	dropPk:count 	0
attr interpolationmode  none
attr source  dropPk
attr title  "packets dropped, count"
scalar scenarioPRJP1.node[98].app 	dropPk:sum(packetBytes) 	0
attr interpolationmode  none
attr source  dropPk
attr title  "packets dropped, sum(packetBytes)"
scalar scenarioPRJP1.node[98].app 	outOfOrderPk:count 	0
attr interpolationmode  none
attr source  outOfOrderPk
attr title  "packets received out of order, count"
scalar scenarioPRJP1.node[98].app 	outOfOrderPk:sum(packetBytes) 	0
attr interpolationmode  none
attr source  outOfOrderPk
attr title  "packets received out of order, sum(packetBytes)"
scalar scenarioPRJP1.node[98].app 	rcvdPk:count 	164
attr interpolationmode  none
attr source  rcvdPk
attr title  "packets received, count"
scalar scenarioPRJP1.node[98].app 	rcvdPk:sum(packetBytes) 	83968
attr interpolationmode  none
attr source  rcvdPk
attr title  "packets received, sum(packetBytes)"
statistic scenarioPRJP1.node[98].app 	endToEndDelay:histogram
field count 164
field mean 0.13835459660424
field stddev 0.40268868433134
field sum 22.690153843096
field sqrsum 29.571069849476
field min 0.000945050053
field max 2.044657037137
attr interpolationmode  none
attr source  messageAge(rcvdPk)
attr title  "delay, histogram"
attr unit  s
bin	-INF	0
bin	-1.020910943489	0
bin	-0.8846634776834	0
bin	-0.7484160118778	0
bin	-0.6121685460722	0
bin	-0.4759210802666	0
bin	-0.339673614461	0
bin	-0.2034261486554	0
bin	-0.0671786828498	146
bin	0.0690687829558	1
bin	0.2053162487614	0
bin	0.341563714567	0
bin	0.4778111803726	1
bin	0.6140586461782	0
bin	0.7503061119838	2
bin	0.8865535777894	6
bin	1.022801043595	2
bin	1.1590485094006	1
bin	1.2952959752062	0
bin	1.4315434410118	1
bin	1.5677909068174	0
bin	1.704038372623	1
bin	1.8402858384286	0
bin	1.9765333042342	3
bin	2.1127807700398	0
bin	2.2490282358454	0
bin	2.385275701651	0
bin	2.5215231674566	0
bin	2.6577706332622	0
bin	2.7940180990678	0
bin	2.9302655648734	0
bin	3.066513030679	0
scalar scenarioPRJP1.node[98].app 	sentPk:count 	2619
attr interpolationmode  none
attr source  sentPk
attr title  "packets sent, count"
scalar scenarioPRJP1.node[98].app 	sentPk:sum(packetBytes) 	1340928
attr interpolationmode  none
attr source  sentPk
attr title  "packets sent, sum(packetBytes)"
scalar scenarioPRJP1.node[98].udp 	droppedPkBadChecksum:count 	0
attr interpolationmode  none
attr title  "packets dropped (checksum error), count"
scalar scenarioPRJP1.node[98].udp 	droppedPkWrongPort:count 	0
attr interpolationmode  none
attr title  "packets dropped (wrong port), count"
scalar scenarioPRJP1.node[98].udp 	passedUpPk:count 	164
attr interpolationmode  none
attr title  "packets passed up, count"
scalar scenarioPRJP1.node[98].udp 	rcvdPk:count 	164
attr interpolationmode  none
attr source  rcvdPk
attr title  "packets received, count"
scalar scenarioPRJP1.node[98].udp 	rcvdPk:sum(packetBytes) 	85280
attr interpolationmode  none
attr source  rcvdPk
attr title  "packets received, sum(packetBytes)"
scalar scenarioPRJP1.node[98].udp 	sentPk:count 	2619
attr interpolationmode  none
attr source  sentPk
attr title  "packets sent, count"
scalar scenarioPRJP1.node[98].udp 	sentPk:sum(packetBytes) 	1361880
attr interpolationmode  none
attr source  sentPk
attr title  "packets sent, sum(packetBytes)"
scalar scenarioPRJP1.node[98].networkLayer.arp 	failedARPResolution:count 	19
attr title  "ARP failed resolutions, count"
scalar scenarioPRJP1.node[98].networkLayer.arp 	completedARPResolution:count 	605
attr title  "ARP completed resolutions, count"
scalar scenarioPRJP1.node[98].networkLayer.arp 	initiatedARPResolution:count 	92
attr title  "ARP initiated resolutions, count"
scalar scenarioPRJP1.node[98].networkLayer.arp 	sentReply:count 	50
attr title  "ARP replies sent, count"
scalar scenarioPRJP1.node[98].networkLayer.arp 	sentReq:count 	147
attr title  "ARP request sent, count"
scalar scenarioPRJP1.node[98].mobility 	startTime 	9.8
scalar scenarioPRJP1.node[98].mobility 	totalTime 	940.2
scalar scenarioPRJP1.node[98].mobility 	stopTime 	950
scalar scenarioPRJP1.node[98].mobility 	minSpeed 	2.4754212623394e-13
scalar scenarioPRJP1.node[98].mobility 	maxSpeed 	16.312995066709
scalar scenarioPRJP1.node[98].mobility 	totalDistance 	8791.1723105964
scalar scenarioPRJP1.node[98].mobility 	totalCO2Emission 	2307.3266978591
scalar scenarioPRJP1.node[98].wlan.mgmt 	dataQueueLen:max 	2
attr interpolationmode  sample-hold
attr title  "data queue length, max"
scalar scenarioPRJP1.node[98].wlan.mgmt 	dataQueueLen:timeavg 	0
attr interpolationmode  sample-hold
attr title  "data queue length, timeavg"
scalar scenarioPRJP1.node[98].wlan.mgmt 	dropPkByQueue:count 	0
attr interpolationmode  none
attr source  dropPkByQueue
attr title  "packets dropped by queue, count"
scalar scenarioPRJP1.node[98].wlan.mgmt 	dropPkByQueue:sum(packetBytes) 	0
attr interpolationmode  none
attr source  dropPkByQueue
attr title  "packets dropped by queue, sum(packetBytes)"
scalar scenarioPRJP1.node[98].wlan.mac 	"number of received packets" 	2112
scalar scenarioPRJP1.node[98].wlan.mac 	"number of collisions" 	7702
scalar scenarioPRJP1.node[98].wlan.mac 	"number of internal collisions" 	2
scalar scenarioPRJP1.node[98].wlan.mac 	"number of retry for AC 0" 	3048
scalar scenarioPRJP1.node[98].wlan.mac 	"number of retry for AC 1" 	45
scalar scenarioPRJP1.node[98].wlan.mac 	"number of retry for AC 2" 	0
scalar scenarioPRJP1.node[98].wlan.mac 	"number of retry for AC 3" 	0
scalar scenarioPRJP1.node[98].wlan.mac 	"sent and received bits" 	29949920
scalar scenarioPRJP1.node[98].wlan.mac 	"sent packet within AC 0" 	937
scalar scenarioPRJP1.node[98].wlan.mac 	"sent packet within AC 1" 	63
scalar scenarioPRJP1.node[98].wlan.mac 	"sent packet within AC 2" 	0
scalar scenarioPRJP1.node[98].wlan.mac 	"sent packet within AC 3" 	0
scalar scenarioPRJP1.node[98].wlan.mac 	"sent in TXOP " 	0
scalar scenarioPRJP1.node[98].wlan.mac 	"sentWithoutRetry AC 0" 	866
scalar scenarioPRJP1.node[98].wlan.mac 	"sentWithoutRetry AC 1" 	60
scalar scenarioPRJP1.node[98].wlan.mac 	"sentWithoutRetry AC 2" 	0
scalar scenarioPRJP1.node[98].wlan.mac 	"sentWithoutRetry AC 3" 	0
scalar scenarioPRJP1.node[98].wlan.mac 	"numGivenUp AC 0" 	479
scalar scenarioPRJP1.node[98].wlan.mac 	"numGivenUp AC 1" 	7
scalar scenarioPRJP1.node[98].wlan.mac 	"numGivenUp AC 2" 	0
scalar scenarioPRJP1.node[98].wlan.mac 	"numGivenUp AC 3" 	0
scalar scenarioPRJP1.node[98].wlan.mac 	"numDropped AC 0" 	0
scalar scenarioPRJP1.node[98].wlan.mac 	"numDropped AC 1" 	0
scalar scenarioPRJP1.node[98].wlan.mac 	"numDropped AC 2" 	0
scalar scenarioPRJP1.node[98].wlan.mac 	"numDropped AC 3" 	0
scalar scenarioPRJP1.node[98].wlan.mac 	rcvdPkFromLL:count 	51148
attr interpolationmode  none
attr source  packetReceivedFromLower
attr title  "packets received from lower layer, count"
scalar scenarioPRJP1.node[98].wlan.mac 	rcvdPkFromLL:sum(packetBytes) 	29839994
attr interpolationmode  none
attr source  packetReceivedFromLower
attr title  "packets received from lower layer, sum(packetBytes)"
scalar scenarioPRJP1.node[98].wlan.mac 	sentDownPk:count 	9887
attr interpolationmode  none
attr source  packetSentToLower
attr title  "packets sent to lower layer, count"
scalar scenarioPRJP1.node[98].wlan.mac 	sentDownPk:sum(packetBytes) 	5689196
attr interpolationmode  none
attr source  packetSentToLower
attr title  "packets sent to lower layer, sum(packetBytes)"
scalar scenarioPRJP1.node[98].wlan.mac 	rcvdPkFromHL:count 	4684
attr interpolationmode  none
attr source  packetReceivedFromUpper
attr title  "packets received from higher layer, count"
scalar scenarioPRJP1.node[98].wlan.mac 	rcvdPkFromHL:sum(packetBytes) 	4003392
attr interpolationmode  none
attr source  packetReceivedFromUpper
attr title  "packets received from higher layer, sum(packetBytes)"
scalar scenarioPRJP1.node[98].wlan.mac 	passedUpPk:count 	17536
attr interpolationmode  none
attr source  packetSentToUpper
attr title  "packets passed to higher layer, count"
scalar scenarioPRJP1.node[98].wlan.mac 	passedUpPk:sum(packetBytes) 	17125388
attr interpolationmode  none
attr source  packetSentToUpper
attr title  "packets passed to higher layer, sum(packetBytes)"
statistic scenarioPRJP1.node[98].wlan.radio 	radioChannel:histogram
field count 1
field mean 3
field stddev -nan
field sum 3
field sqrsum 9
field min 3
field max 3
attr interpolationmode  sample-hold
attr source  radioChannelChanged
attr title  "Radio channel, histogram"
bin	-INF	0
bin	2	0
bin	3	1
bin	4	0
scalar scenarioPRJP1.node[98].wlan.radio 	transmissionState:count 	39548
attr interpolationmode  sample-hold
attr source  transmissionStateChanged
attr title  "Radio transmission state, count"
scalar scenarioPRJP1.node[98].wlan.radio 	receptionState:count 	123035
attr interpolationmode  sample-hold
attr source  receptionStateChanged
attr title  "Radio reception state, count"
scalar scenarioPRJP1.node[98].wlan.radio 	radioMode:count 	19776
attr interpolationmode  sample-hold
attr source  radioModeChanged
attr title  "Radio mode, count"
statistic scenarioPRJP1.node[98].wlan.radio 	symbolErrorRate:histogram
field count 0
field mean -nan
field stddev -nan
field sum 0
field sqrsum 0
field min -nan
field max -nan
attr source  symbolErrorRate
attr title  "Symbol error rate, histogram"
bin	-INF	0
bin	-0.5	0
bin	-0.46666666666667	0
bin	-0.43333333333333	0
bin	-0.4	0
bin	-0.36666666666667	0
bin	-0.33333333333333	0
bin	-0.3	0
bin	-0.26666666666667	0
bin	-0.23333333333333	0
bin	-0.2	0
bin	-0.16666666666667	0
bin	-0.13333333333333	0
bin	-0.1	0
bin	-0.066666666666667	0
bin	-0.033333333333333	0
bin	-6.9388939039072e-18	0
bin	0.033333333333333	0
bin	0.066666666666667	0
bin	0.1	0
bin	0.13333333333333	0
bin	0.16666666666667	0
bin	0.2	0
bin	0.23333333333333	0
bin	0.26666666666667	0
bin	0.3	0
bin	0.33333333333333	0
bin	0.36666666666667	0
bin	0.4	0
bin	0.43333333333333	0
bin	0.46666666666667	0
bin	0.5	0
statistic scenarioPRJP1.node[98].wlan.radio 	bitErrorRate:histogram
field count 0
field mean -nan
field stddev -nan
field sum 0
field sqrsum 0
field min -nan
field max -nan
attr source  bitErrorRate
attr title  "Bit error rate, histogram"
bin	-INF	0
bin	-0.5	0
bin	-0.46666666666667	0
bin	-0.43333333333333	0
bin	-0.4	0
bin	-0.36666666666667	0
bin	-0.33333333333333	0
bin	-0.3	0
bin	-0.26666666666667	0
bin	-0.23333333333333	0
bin	-0.2	0
bin	-0.16666666666667	0
bin	-0.13333333333333	0
bin	-0.1	0
bin	-0.066666666666667	0
bin	-0.033333333333333	0
bin	-6.9388939039072e-18	0
bin	0.033333333333333	0
bin	0.066666666666667	0
bin	0.1	0
bin	0.13333333333333	0
bin	0.16666666666667	0
bin	0.2	0
bin	0.23333333333333	0
bin	0.26666666666667	0
bin	0.3	0
bin	0.33333333333333	0
bin	0.36666666666667	0
bin	0.4	0
bin	0.43333333333333	0
bin	0.46666666666667	0
bin	0.5	0
statistic scenarioPRJP1.node[98].wlan.radio 	packetErrorRate:histogram
field count 51148
field mean 0.14069144354119
field stddev 0.33925853159501
field sum 7196.0859542446
field sqrsum 6899.2607986444
field min 0
field max 1
attr source  packetErrorRate
attr title  "Packet error rate, histogram"
bin	-INF	0
bin	-1	0
bin	0	45556
bin	1	5592
bin	2	0
statistic scenarioPRJP1.node[98].wlan.radio 	minSNIR:histogram
field count 51148
field mean 4647.0024916817
field stddev 36710.102741949
field sum 237684883.44454
field sqrsum 70031837906719
field min 0.0010206958259319
field max 960787.40962977
attr source  minSNIR
attr title  "Min SNIR, histogram"
bin	-INF	0
bin	-15614.162856217	0
bin	-13532.202879696	0
bin	-11450.242903175	0
bin	-9368.2829266545	0
bin	-7286.3229501335	0
bin	-5204.3629736126	0
bin	-3122.4029970916	0
bin	-1040.4430205707	43590
bin	1041.5169559503	2830
bin	3123.4769324712	1009
bin	5205.4369089922	550
bin	7287.3968855131	357
bin	9369.3568620341	351
bin	11451.316838555	222
bin	13533.276815076	225
bin	15615.236791597	176
bin	17697.196768118	176
bin	19779.156744639	87
bin	21861.11672116	96
bin	23943.076697681	98
bin	26025.036674202	51
bin	28106.996650723	67
bin	30188.956627244	47
bin	32270.916603765	61
bin	34352.876580286	26
bin	36434.836556806	73
bin	38516.796533327	22
bin	40598.756509848	25
bin	42680.716486369	20
bin	44762.67646289	42
bin	46844.636439411	947
scalar scenarioPRJP1.node[98].lo0.lo 	droppedPkBitError:count 	0
attr interpolationmode  none
attr source  dropPkBitError
attr title  "packets dropped/bit error, count"
scalar scenarioPRJP1.node[98].lo0.lo 	droppedPkBitError:sum(packetBytes) 	0
attr interpolationmode  none
attr source  dropPkBitError
attr title  "packets dropped/bit error, sum(packetBytes)"
scalar scenarioPRJP1.node[98].lo0.lo 	rcvdPkFromHL:count 	10
attr interpolationmode  none
attr source  packetReceivedFromUpper
attr title  "packets received from higher layer, count"
scalar scenarioPRJP1.node[98].lo0.lo 	rcvdPkFromHL:sum(packetBytes) 	560
attr interpolationmode  none
attr source  packetReceivedFromUpper
attr title  "packets received from higher layer, sum(packetBytes)"
scalar scenarioPRJP1.node[98].lo0.lo 	passedUpPk:count 	10
attr interpolationmode  none
attr source  packetSentToUpper
attr title  "packets passed to higher layer, count"
scalar scenarioPRJP1.node[98].lo0.lo 	passedUpPk:sum(packetBytes) 	560
attr interpolationmode  none
attr source  packetSentToUpper
attr title  "packets passed to higher layer, sum(packetBytes)"
