version 2
run OLSR-ETX-TRG-100n-7-20150805-13:56:10-4765
attr configname OLSR-ETX-TRG-100n
attr datetime 20150805-13:56:10
attr experiment OLSR-ETX-TRG-100n
attr inifile omnetpp.ini
attr iterationvars ""
attr iterationvars2 $repetition=7
attr measurement ""
attr network Prj_Part1_propag.scenarioPRJP1
attr processid 4765
attr repetition 7
attr replication #7
attr resultdir results
attr runnumber 7
attr seedset 7

scalar scenarioPRJP1.node[61].app 	"Total sent" 	370
scalar scenarioPRJP1.node[61].app 	"Total received" 	20
scalar scenarioPRJP1.node[61].app 	"Total deleted" 	0
scalar scenarioPRJP1.node[61].app 	dropPk:count 	0
attr interpolationmode  none
attr source  dropPk
attr title  "packets dropped, count"
scalar scenarioPRJP1.node[61].app 	dropPk:sum(packetBytes) 	0
attr interpolationmode  none
attr source  dropPk
attr title  "packets dropped, sum(packetBytes)"
scalar scenarioPRJP1.node[61].app 	outOfOrderPk:count 	0
attr interpolationmode  none
attr source  outOfOrderPk
attr title  "packets received out of order, count"
scalar scenarioPRJP1.node[61].app 	outOfOrderPk:sum(packetBytes) 	0
attr interpolationmode  none
attr source  outOfOrderPk
attr title  "packets received out of order, sum(packetBytes)"
scalar scenarioPRJP1.node[61].app 	rcvdPk:count 	20
attr interpolationmode  none
attr source  rcvdPk
attr title  "packets received, count"
scalar scenarioPRJP1.node[61].app 	rcvdPk:sum(packetBytes) 	10240
attr interpolationmode  none
attr source  rcvdPk
attr title  "packets received, sum(packetBytes)"
statistic scenarioPRJP1.node[61].app 	endToEndDelay:histogram
field count 20
field mean 0.195314896661
field stddev 0.51000126146435
field sum 3.90629793322
field sqrsum 5.7048826243632
field min 0.000958011007
field max 2.014730424141
attr interpolationmode  none
attr source  messageAge(rcvdPk)
attr title  "delay, histogram"
attr unit  s
bin	-INF	0
bin	-1.00592819556	0
bin	-0.87167670135107	0
bin	-0.73742520714213	0
bin	-0.6031737129332	0
bin	-0.46892221872427	0
bin	-0.33467072451533	0
bin	-0.2004192303064	0
bin	-0.066167736097467	17
bin	0.068083758111467	0
bin	0.2023352523204	0
bin	0.33658674652933	0
bin	0.47083824073827	0
bin	0.6050897349472	0
bin	0.73934122915613	1
bin	0.87359272336507	0
bin	1.007844217574	1
bin	1.1420957117829	0
bin	1.2763472059919	0
bin	1.4105987002008	0
bin	1.5448501944097	0
bin	1.6791016886187	0
bin	1.8133531828276	0
bin	1.9476046770365	1
bin	2.0818561712455	0
bin	2.2161076654544	0
bin	2.3503591596633	0
bin	2.4846106538723	0
bin	2.6188621480812	0
bin	2.7531136422901	0
bin	2.8873651364991	0
bin	3.021616630708	0
scalar scenarioPRJP1.node[61].app 	sentPk:count 	370
attr interpolationmode  none
attr source  sentPk
attr title  "packets sent, count"
scalar scenarioPRJP1.node[61].app 	sentPk:sum(packetBytes) 	189440
attr interpolationmode  none
attr source  sentPk
attr title  "packets sent, sum(packetBytes)"
scalar scenarioPRJP1.node[61].udp 	droppedPkBadChecksum:count 	0
attr interpolationmode  none
attr title  "packets dropped (checksum error), count"
scalar scenarioPRJP1.node[61].udp 	droppedPkWrongPort:count 	0
attr interpolationmode  none
attr title  "packets dropped (wrong port), count"
scalar scenarioPRJP1.node[61].udp 	passedUpPk:count 	20
attr interpolationmode  none
attr title  "packets passed up, count"
scalar scenarioPRJP1.node[61].udp 	rcvdPk:count 	20
attr interpolationmode  none
attr source  rcvdPk
attr title  "packets received, count"
scalar scenarioPRJP1.node[61].udp 	rcvdPk:sum(packetBytes) 	10400
attr interpolationmode  none
attr source  rcvdPk
attr title  "packets received, sum(packetBytes)"
scalar scenarioPRJP1.node[61].udp 	sentPk:count 	370
attr interpolationmode  none
attr source  sentPk
attr title  "packets sent, count"
scalar scenarioPRJP1.node[61].udp 	sentPk:sum(packetBytes) 	192400
attr interpolationmode  none
attr source  sentPk
attr title  "packets sent, sum(packetBytes)"
scalar scenarioPRJP1.node[61].networkLayer.arp 	failedARPResolution:count 	2
attr title  "ARP failed resolutions, count"
scalar scenarioPRJP1.node[61].networkLayer.arp 	completedARPResolution:count 	95
attr title  "ARP completed resolutions, count"
scalar scenarioPRJP1.node[61].networkLayer.arp 	initiatedARPResolution:count 	14
attr title  "ARP initiated resolutions, count"
scalar scenarioPRJP1.node[61].networkLayer.arp 	sentReply:count 	11
attr title  "ARP replies sent, count"
scalar scenarioPRJP1.node[61].networkLayer.arp 	sentReq:count 	21
attr title  "ARP request sent, count"
scalar scenarioPRJP1.node[61].mobility 	startTime 	7.3
scalar scenarioPRJP1.node[61].mobility 	totalTime 	152.2
scalar scenarioPRJP1.node[61].mobility 	stopTime 	159.6
scalar scenarioPRJP1.node[61].mobility 	minSpeed 	2.4773099835265e-13
scalar scenarioPRJP1.node[61].mobility 	maxSpeed 	18.398991987345
scalar scenarioPRJP1.node[61].mobility 	totalDistance 	1483.2427575601
scalar scenarioPRJP1.node[61].mobility 	totalCO2Emission 	461.70486689961
scalar scenarioPRJP1.node[61].wlan.mgmt 	dataQueueLen:max 	0
attr interpolationmode  sample-hold
attr title  "data queue length, max"
scalar scenarioPRJP1.node[61].wlan.mgmt 	dataQueueLen:timeavg 	0
attr interpolationmode  sample-hold
attr title  "data queue length, timeavg"
scalar scenarioPRJP1.node[61].wlan.mgmt 	dropPkByQueue:count 	0
attr interpolationmode  none
attr source  dropPkByQueue
attr title  "packets dropped by queue, count"
scalar scenarioPRJP1.node[61].wlan.mgmt 	dropPkByQueue:sum(packetBytes) 	0
attr interpolationmode  none
attr source  dropPkByQueue
attr title  "packets dropped by queue, sum(packetBytes)"
scalar scenarioPRJP1.node[61].wlan.mac 	"number of received packets" 	567
scalar scenarioPRJP1.node[61].wlan.mac 	"number of collisions" 	834
scalar scenarioPRJP1.node[61].wlan.mac 	"number of internal collisions" 	0
scalar scenarioPRJP1.node[61].wlan.mac 	"number of retry for AC 0" 	749
scalar scenarioPRJP1.node[61].wlan.mac 	"number of retry for AC 1" 	0
scalar scenarioPRJP1.node[61].wlan.mac 	"number of retry for AC 2" 	0
scalar scenarioPRJP1.node[61].wlan.mac 	"number of retry for AC 3" 	0
scalar scenarioPRJP1.node[61].wlan.mac 	"sent and received bits" 	4239776
scalar scenarioPRJP1.node[61].wlan.mac 	"sent packet within AC 0" 	66
scalar scenarioPRJP1.node[61].wlan.mac 	"sent packet within AC 1" 	5
scalar scenarioPRJP1.node[61].wlan.mac 	"sent packet within AC 2" 	0
scalar scenarioPRJP1.node[61].wlan.mac 	"sent packet within AC 3" 	0
scalar scenarioPRJP1.node[61].wlan.mac 	"sent in TXOP " 	0
scalar scenarioPRJP1.node[61].wlan.mac 	"sentWithoutRetry AC 0" 	60
scalar scenarioPRJP1.node[61].wlan.mac 	"sentWithoutRetry AC 1" 	5
scalar scenarioPRJP1.node[61].wlan.mac 	"sentWithoutRetry AC 2" 	0
scalar scenarioPRJP1.node[61].wlan.mac 	"sentWithoutRetry AC 3" 	0
scalar scenarioPRJP1.node[61].wlan.mac 	"numGivenUp AC 0" 	123
scalar scenarioPRJP1.node[61].wlan.mac 	"numGivenUp AC 1" 	0
scalar scenarioPRJP1.node[61].wlan.mac 	"numGivenUp AC 2" 	0
scalar scenarioPRJP1.node[61].wlan.mac 	"numGivenUp AC 3" 	0
scalar scenarioPRJP1.node[61].wlan.mac 	"numDropped AC 0" 	0
scalar scenarioPRJP1.node[61].wlan.mac 	"numDropped AC 1" 	0
scalar scenarioPRJP1.node[61].wlan.mac 	"numDropped AC 2" 	0
scalar scenarioPRJP1.node[61].wlan.mac 	"numDropped AC 3" 	0
scalar scenarioPRJP1.node[61].wlan.mac 	rcvdPkFromLL:count 	7693
attr interpolationmode  none
attr source  packetReceivedFromLower
attr title  "packets received from lower layer, count"
scalar scenarioPRJP1.node[61].wlan.mac 	rcvdPkFromLL:sum(packetBytes) 	4265758
attr interpolationmode  none
attr source  packetReceivedFromLower
attr title  "packets received from lower layer, sum(packetBytes)"
scalar scenarioPRJP1.node[61].wlan.mac 	sentDownPk:count 	1999
attr interpolationmode  none
attr source  packetSentToLower
attr title  "packets sent to lower layer, count"
scalar scenarioPRJP1.node[61].wlan.mac 	sentDownPk:sum(packetBytes) 	1014582
attr interpolationmode  none
attr source  packetSentToLower
attr title  "packets sent to lower layer, sum(packetBytes)"
scalar scenarioPRJP1.node[61].wlan.mac 	rcvdPkFromHL:count 	683
attr interpolationmode  none
attr source  packetReceivedFromUpper
attr title  "packets received from higher layer, count"
scalar scenarioPRJP1.node[61].wlan.mac 	rcvdPkFromHL:sum(packetBytes) 	597236
attr interpolationmode  none
attr source  packetReceivedFromUpper
attr title  "packets received from higher layer, sum(packetBytes)"
scalar scenarioPRJP1.node[61].wlan.mac 	passedUpPk:count 	2641
attr interpolationmode  none
attr source  packetSentToUpper
attr title  "packets passed to higher layer, count"
scalar scenarioPRJP1.node[61].wlan.mac 	passedUpPk:sum(packetBytes) 	2565920
attr interpolationmode  none
attr source  packetSentToUpper
attr title  "packets passed to higher layer, sum(packetBytes)"
statistic scenarioPRJP1.node[61].wlan.radio 	radioChannel:histogram
field count 1
field mean 3
field stddev -nan
field sum 3
field sqrsum 9
field min 3
field max 3
attr interpolationmode  sample-hold
attr source  radioChannelChanged
attr title  "Radio channel, histogram"
bin	-INF	0
bin	2	0
bin	3	1
bin	4	0
scalar scenarioPRJP1.node[61].wlan.radio 	transmissionState:count 	7996
attr interpolationmode  sample-hold
attr source  transmissionStateChanged
attr title  "Radio transmission state, count"
scalar scenarioPRJP1.node[61].wlan.radio 	receptionState:count 	19444
attr interpolationmode  sample-hold
attr source  receptionStateChanged
attr title  "Radio reception state, count"
scalar scenarioPRJP1.node[61].wlan.radio 	radioMode:count 	4000
attr interpolationmode  sample-hold
attr source  radioModeChanged
attr title  "Radio mode, count"
statistic scenarioPRJP1.node[61].wlan.radio 	symbolErrorRate:histogram
field count 0
field mean -nan
field stddev -nan
field sum 0
field sqrsum 0
field min -nan
field max -nan
attr source  symbolErrorRate
attr title  "Symbol error rate, histogram"
bin	-INF	0
bin	-0.5	0
bin	-0.46666666666667	0
bin	-0.43333333333333	0
bin	-0.4	0
bin	-0.36666666666667	0
bin	-0.33333333333333	0
bin	-0.3	0
bin	-0.26666666666667	0
bin	-0.23333333333333	0
bin	-0.2	0
bin	-0.16666666666667	0
bin	-0.13333333333333	0
bin	-0.1	0
bin	-0.066666666666667	0
bin	-0.033333333333333	0
bin	0	0
bin	0.033333333333333	0
bin	0.066666666666667	0
bin	0.1	0
bin	0.13333333333333	0
bin	0.16666666666667	0
bin	0.2	0
bin	0.23333333333333	0
bin	0.26666666666667	0
bin	0.3	0
bin	0.33333333333333	0
bin	0.36666666666667	0
bin	0.4	0
bin	0.43333333333333	0
bin	0.46666666666667	0
bin	0.5	0
statistic scenarioPRJP1.node[61].wlan.radio 	bitErrorRate:histogram
field count 0
field mean -nan
field stddev -nan
field sum 0
field sqrsum 0
field min -nan
field max -nan
attr source  bitErrorRate
attr title  "Bit error rate, histogram"
bin	-INF	0
bin	-0.5	0
bin	-0.46666666666667	0
bin	-0.43333333333333	0
bin	-0.4	0
bin	-0.36666666666667	0
bin	-0.33333333333333	0
bin	-0.3	0
bin	-0.26666666666667	0
bin	-0.23333333333333	0
bin	-0.2	0
bin	-0.16666666666667	0
bin	-0.13333333333333	0
bin	-0.1	0
bin	-0.066666666666667	0
bin	-0.033333333333333	0
bin	0	0
bin	0.033333333333333	0
bin	0.066666666666667	0
bin	0.1	0
bin	0.13333333333333	0
bin	0.16666666666667	0
bin	0.2	0
bin	0.23333333333333	0
bin	0.26666666666667	0
bin	0.3	0
bin	0.33333333333333	0
bin	0.36666666666667	0
bin	0.4	0
bin	0.43333333333333	0
bin	0.46666666666667	0
bin	0.5	0
statistic scenarioPRJP1.node[61].wlan.radio 	packetErrorRate:histogram
field count 7693
field mean 0.10086680098219
field stddev 0.29300897014771
field sum 775.96829995595
field sqrsum 738.66038174749
field min 0
field max 1
attr source  packetErrorRate
attr title  "Packet error rate, histogram"
bin	-INF	0
bin	-8.8111140050806e-09	0
bin	-7.6362988044032e-09	0
bin	-6.4614836037258e-09	0
bin	-5.2866684030484e-09	0
bin	-4.111853202371e-09	0
bin	-2.9370380016935e-09	0
bin	-1.7622228010161e-09	0
bin	-5.8740760033871e-10	5916
bin	5.8740760033871e-10	42
bin	1.7622228010161e-09	30
bin	2.9370380016935e-09	10
bin	4.111853202371e-09	17
bin	5.2866684030484e-09	1
bin	6.4614836037258e-09	11
bin	7.6362988044032e-09	6
bin	8.8111140050806e-09	2
bin	9.985929205758e-09	5
bin	1.1160744406435e-08	1
bin	1.2335559607113e-08	4
bin	1.351037480779e-08	6
bin	1.4685190008468e-08	3
bin	1.5860005209145e-08	3
bin	1.7034820409823e-08	3
bin	1.82096356105e-08	8
bin	1.9384450811177e-08	4
bin	2.0559266011855e-08	4
bin	2.1734081212532e-08	1
bin	2.290889641321e-08	3
bin	2.4083711613887e-08	3
bin	2.5258526814564e-08	0
bin	2.6433342015242e-08	1610
statistic scenarioPRJP1.node[61].wlan.radio 	minSNIR:histogram
field count 7693
field mean 2755.9360871142
field stddev 27260.84562813
field sum 21201416.31817
field sqrsum 5774768042272
field min 0.0064487688944318
field max 753238.90554159
attr source  minSNIR
attr title  "Min SNIR, histogram"
bin	-INF	0
bin	-20559.504696653	0
bin	-17817.546737156	0
bin	-15075.588777659	0
bin	-12333.630818162	0
bin	-9591.6728586651	0
bin	-6849.714899168	0
bin	-4107.7569396709	0
bin	-1365.7989801738	6820
bin	1376.1589793233	398
bin	4118.1169388204	124
bin	6860.0748983175	82
bin	9602.0328578146	62
bin	12343.990817312	16
bin	15085.948776809	31
bin	17827.906736306	9
bin	20569.864695803	13
bin	23311.8226553	9
bin	26053.780614797	16
bin	28795.738574294	5
bin	31537.696533791	6
bin	34279.654493289	5
bin	37021.612452786	2
bin	39763.570412283	7
bin	42505.52837178	1
bin	45247.486331277	6
bin	47989.444290774	4
bin	50731.402250271	4
bin	53473.360209768	1
bin	56215.318169265	1
bin	58957.276128762	0
bin	61699.23408826	71
scalar scenarioPRJP1.node[61].lo0.lo 	droppedPkBitError:count 	0
attr interpolationmode  none
attr source  dropPkBitError
attr title  "packets dropped/bit error, count"
scalar scenarioPRJP1.node[61].lo0.lo 	droppedPkBitError:sum(packetBytes) 	0
attr interpolationmode  none
attr source  dropPkBitError
attr title  "packets dropped/bit error, sum(packetBytes)"
scalar scenarioPRJP1.node[61].lo0.lo 	rcvdPkFromHL:count 	0
attr interpolationmode  none
attr source  packetReceivedFromUpper
attr title  "packets received from higher layer, count"
scalar scenarioPRJP1.node[61].lo0.lo 	rcvdPkFromHL:sum(packetBytes) 	0
attr interpolationmode  none
attr source  packetReceivedFromUpper
attr title  "packets received from higher layer, sum(packetBytes)"
scalar scenarioPRJP1.node[61].lo0.lo 	passedUpPk:count 	0
attr interpolationmode  none
attr source  packetSentToUpper
attr title  "packets passed to higher layer, count"
scalar scenarioPRJP1.node[61].lo0.lo 	passedUpPk:sum(packetBytes) 	0
attr interpolationmode  none
attr source  packetSentToUpper
attr title  "packets passed to higher layer, sum(packetBytes)"
scalar scenarioPRJP1.node[59].app 	"Total sent" 	363
scalar scenarioPRJP1.node[59].app 	"Total received" 	25
scalar scenarioPRJP1.node[59].app 	"Total deleted" 	0
scalar scenarioPRJP1.node[59].app 	dropPk:count 	0
attr interpolationmode  none
attr source  dropPk
attr title  "packets dropped, count"
scalar scenarioPRJP1.node[59].app 	dropPk:sum(packetBytes) 	0
attr interpolationmode  none
attr source  dropPk
attr title  "packets dropped, sum(packetBytes)"
scalar scenarioPRJP1.node[59].app 	outOfOrderPk:count 	0
attr interpolationmode  none
attr source  outOfOrderPk
attr title  "packets received out of order, count"
scalar scenarioPRJP1.node[59].app 	outOfOrderPk:sum(packetBytes) 	0
attr interpolationmode  none
attr source  outOfOrderPk
attr title  "packets received out of order, sum(packetBytes)"
scalar scenarioPRJP1.node[59].app 	rcvdPk:count 	25
attr interpolationmode  none
attr source  rcvdPk
attr title  "packets received, count"
scalar scenarioPRJP1.node[59].app 	rcvdPk:sum(packetBytes) 	12800
attr interpolationmode  none
attr source  rcvdPk
attr title  "packets received, sum(packetBytes)"
statistic scenarioPRJP1.node[59].app 	endToEndDelay:histogram
field count 25
field mean 0.03998272370196
field stddev 0.15049615996281
field sum 0.999568092549
field sqrsum 0.58354371479096
field min 0.000945651018
field max 0.758037265852
attr interpolationmode  none
attr source  messageAge(rcvdPk)
attr title  "delay, histogram"
attr unit  s
bin	-INF	0
bin	-0.377600156399	0
bin	-0.32712738207673	0
bin	-0.27665460775447	0
bin	-0.2261818334322	0
bin	-0.17570905910993	0
bin	-0.12523628478767	0
bin	-0.0747635104654	0
bin	-0.024290736143133	22
bin	0.026182038179133	2
bin	0.0766548125014	0
bin	0.12712758682367	0
bin	0.17760036114593	0
bin	0.2280731354682	0
bin	0.27854590979047	0
bin	0.32901868411273	0
bin	0.379491458435	0
bin	0.42996423275727	0
bin	0.48043700707953	0
bin	0.5309097814018	0
bin	0.58138255572407	0
bin	0.63185533004633	0
bin	0.6823281043686	0
bin	0.73280087869087	1
bin	0.78327365301313	0
bin	0.8337464273354	0
bin	0.88421920165767	0
bin	0.93469197597993	0
bin	0.9851647503022	0
bin	1.0356375246245	0
bin	1.0861102989467	0
bin	1.136583073269	0
scalar scenarioPRJP1.node[59].app 	sentPk:count 	363
attr interpolationmode  none
attr source  sentPk
attr title  "packets sent, count"
scalar scenarioPRJP1.node[59].app 	sentPk:sum(packetBytes) 	185856
attr interpolationmode  none
attr source  sentPk
attr title  "packets sent, sum(packetBytes)"
scalar scenarioPRJP1.node[59].udp 	droppedPkBadChecksum:count 	0
attr interpolationmode  none
attr title  "packets dropped (checksum error), count"
scalar scenarioPRJP1.node[59].udp 	droppedPkWrongPort:count 	0
attr interpolationmode  none
attr title  "packets dropped (wrong port), count"
scalar scenarioPRJP1.node[59].udp 	passedUpPk:count 	25
attr interpolationmode  none
attr title  "packets passed up, count"
scalar scenarioPRJP1.node[59].udp 	rcvdPk:count 	25
attr interpolationmode  none
attr source  rcvdPk
attr title  "packets received, count"
scalar scenarioPRJP1.node[59].udp 	rcvdPk:sum(packetBytes) 	13000
attr interpolationmode  none
attr source  rcvdPk
attr title  "packets received, sum(packetBytes)"
scalar scenarioPRJP1.node[59].udp 	sentPk:count 	363
attr interpolationmode  none
attr source  sentPk
attr title  "packets sent, count"
scalar scenarioPRJP1.node[59].udp 	sentPk:sum(packetBytes) 	188760
attr interpolationmode  none
attr source  sentPk
attr title  "packets sent, sum(packetBytes)"
scalar scenarioPRJP1.node[59].networkLayer.arp 	failedARPResolution:count 	1
attr title  "ARP failed resolutions, count"
scalar scenarioPRJP1.node[59].networkLayer.arp 	completedARPResolution:count 	89
attr title  "ARP completed resolutions, count"
scalar scenarioPRJP1.node[59].networkLayer.arp 	initiatedARPResolution:count 	8
attr title  "ARP initiated resolutions, count"
scalar scenarioPRJP1.node[59].networkLayer.arp 	sentReply:count 	13
attr title  "ARP replies sent, count"
scalar scenarioPRJP1.node[59].networkLayer.arp 	sentReq:count 	14
attr title  "ARP request sent, count"
scalar scenarioPRJP1.node[59].mobility 	startTime 	5
scalar scenarioPRJP1.node[59].mobility 	totalTime 	154.8
scalar scenarioPRJP1.node[59].mobility 	stopTime 	159.9
scalar scenarioPRJP1.node[59].mobility 	minSpeed 	2.476350218657e-13
scalar scenarioPRJP1.node[59].mobility 	maxSpeed 	17.826478670986
scalar scenarioPRJP1.node[59].mobility 	totalDistance 	1447.6194319737
scalar scenarioPRJP1.node[59].mobility 	totalCO2Emission 	413.28312841396
scalar scenarioPRJP1.node[59].wlan.mgmt 	dataQueueLen:max 	0
attr interpolationmode  sample-hold
attr title  "data queue length, max"
scalar scenarioPRJP1.node[59].wlan.mgmt 	dataQueueLen:timeavg 	0
attr interpolationmode  sample-hold
attr title  "data queue length, timeavg"
scalar scenarioPRJP1.node[59].wlan.mgmt 	dropPkByQueue:count 	0
attr interpolationmode  none
attr source  dropPkByQueue
attr title  "packets dropped by queue, count"
scalar scenarioPRJP1.node[59].wlan.mgmt 	dropPkByQueue:sum(packetBytes) 	0
attr interpolationmode  none
attr source  dropPkByQueue
attr title  "packets dropped by queue, sum(packetBytes)"
scalar scenarioPRJP1.node[59].wlan.mac 	"number of received packets" 	351
scalar scenarioPRJP1.node[59].wlan.mac 	"number of collisions" 	791
scalar scenarioPRJP1.node[59].wlan.mac 	"number of internal collisions" 	0
scalar scenarioPRJP1.node[59].wlan.mac 	"number of retry for AC 0" 	486
scalar scenarioPRJP1.node[59].wlan.mac 	"number of retry for AC 1" 	6
scalar scenarioPRJP1.node[59].wlan.mac 	"number of retry for AC 2" 	0
scalar scenarioPRJP1.node[59].wlan.mac 	"number of retry for AC 3" 	0
scalar scenarioPRJP1.node[59].wlan.mac 	"sent and received bits" 	3761248
scalar scenarioPRJP1.node[59].wlan.mac 	"sent packet within AC 0" 	98
scalar scenarioPRJP1.node[59].wlan.mac 	"sent packet within AC 1" 	6
scalar scenarioPRJP1.node[59].wlan.mac 	"sent packet within AC 2" 	0
scalar scenarioPRJP1.node[59].wlan.mac 	"sent packet within AC 3" 	0
scalar scenarioPRJP1.node[59].wlan.mac 	"sent in TXOP " 	0
scalar scenarioPRJP1.node[59].wlan.mac 	"sentWithoutRetry AC 0" 	93
scalar scenarioPRJP1.node[59].wlan.mac 	"sentWithoutRetry AC 1" 	6
scalar scenarioPRJP1.node[59].wlan.mac 	"sentWithoutRetry AC 2" 	0
scalar scenarioPRJP1.node[59].wlan.mac 	"sentWithoutRetry AC 3" 	0
scalar scenarioPRJP1.node[59].wlan.mac 	"numGivenUp AC 0" 	79
scalar scenarioPRJP1.node[59].wlan.mac 	"numGivenUp AC 1" 	1
scalar scenarioPRJP1.node[59].wlan.mac 	"numGivenUp AC 2" 	0
scalar scenarioPRJP1.node[59].wlan.mac 	"numGivenUp AC 3" 	0
scalar scenarioPRJP1.node[59].wlan.mac 	"numDropped AC 0" 	0
scalar scenarioPRJP1.node[59].wlan.mac 	"numDropped AC 1" 	0
scalar scenarioPRJP1.node[59].wlan.mac 	"numDropped AC 2" 	0
scalar scenarioPRJP1.node[59].wlan.mac 	"numDropped AC 3" 	0
scalar scenarioPRJP1.node[59].wlan.mac 	rcvdPkFromLL:count 	8965
attr interpolationmode  none
attr source  packetReceivedFromLower
attr title  "packets received from lower layer, count"
scalar scenarioPRJP1.node[59].wlan.mac 	rcvdPkFromLL:sum(packetBytes) 	4737056
attr interpolationmode  none
attr source  packetReceivedFromLower
attr title  "packets received from lower layer, sum(packetBytes)"
scalar scenarioPRJP1.node[59].wlan.mac 	sentDownPk:count 	1435
attr interpolationmode  none
attr source  packetSentToLower
attr title  "packets sent to lower layer, count"
scalar scenarioPRJP1.node[59].wlan.mac 	sentDownPk:sum(packetBytes) 	776066
attr interpolationmode  none
attr source  packetSentToLower
attr title  "packets sent to lower layer, sum(packetBytes)"
scalar scenarioPRJP1.node[59].wlan.mac 	rcvdPkFromHL:count 	592
attr interpolationmode  none
attr source  packetReceivedFromUpper
attr title  "packets received from higher layer, count"
scalar scenarioPRJP1.node[59].wlan.mac 	rcvdPkFromHL:sum(packetBytes) 	512168
attr interpolationmode  none
attr source  packetReceivedFromUpper
attr title  "packets received from higher layer, sum(packetBytes)"
scalar scenarioPRJP1.node[59].wlan.mac 	passedUpPk:count 	2696
attr interpolationmode  none
attr source  packetSentToUpper
attr title  "packets passed to higher layer, count"
scalar scenarioPRJP1.node[59].wlan.mac 	passedUpPk:sum(packetBytes) 	2628836
attr interpolationmode  none
attr source  packetSentToUpper
attr title  "packets passed to higher layer, sum(packetBytes)"
statistic scenarioPRJP1.node[59].wlan.radio 	radioChannel:histogram
field count 1
field mean 3
field stddev -nan
field sum 3
field sqrsum 9
field min 3
field max 3
attr interpolationmode  sample-hold
attr source  radioChannelChanged
attr title  "Radio channel, histogram"
bin	-INF	0
bin	2	0
bin	3	1
bin	4	0
scalar scenarioPRJP1.node[59].wlan.radio 	transmissionState:count 	5740
attr interpolationmode  sample-hold
attr source  transmissionStateChanged
attr title  "Radio transmission state, count"
scalar scenarioPRJP1.node[59].wlan.radio 	receptionState:count 	20872
attr interpolationmode  sample-hold
attr source  receptionStateChanged
attr title  "Radio reception state, count"
scalar scenarioPRJP1.node[59].wlan.radio 	radioMode:count 	2872
attr interpolationmode  sample-hold
attr source  radioModeChanged
attr title  "Radio mode, count"
statistic scenarioPRJP1.node[59].wlan.radio 	symbolErrorRate:histogram
field count 0
field mean -nan
field stddev -nan
field sum 0
field sqrsum 0
field min -nan
field max -nan
attr source  symbolErrorRate
attr title  "Symbol error rate, histogram"
bin	-INF	0
bin	-0.5	0
bin	-0.46666666666667	0
bin	-0.43333333333333	0
bin	-0.4	0
bin	-0.36666666666667	0
bin	-0.33333333333333	0
bin	-0.3	0
bin	-0.26666666666667	0
bin	-0.23333333333333	0
bin	-0.2	0
bin	-0.16666666666667	0
bin	-0.13333333333333	0
bin	-0.1	0
bin	-0.066666666666667	0
bin	-0.033333333333333	0
bin	0	0
bin	0.033333333333333	0
bin	0.066666666666667	0
bin	0.1	0
bin	0.13333333333333	0
bin	0.16666666666667	0
bin	0.2	0
bin	0.23333333333333	0
bin	0.26666666666667	0
bin	0.3	0
bin	0.33333333333333	0
bin	0.36666666666667	0
bin	0.4	0
bin	0.43333333333333	0
bin	0.46666666666667	0
bin	0.5	0
statistic scenarioPRJP1.node[59].wlan.radio 	bitErrorRate:histogram
field count 0
field mean -nan
field stddev -nan
field sum 0
field sqrsum 0
field min -nan
field max -nan
attr source  bitErrorRate
attr title  "Bit error rate, histogram"
bin	-INF	0
bin	-0.5	0
bin	-0.46666666666667	0
bin	-0.43333333333333	0
bin	-0.4	0
bin	-0.36666666666667	0
bin	-0.33333333333333	0
bin	-0.3	0
bin	-0.26666666666667	0
bin	-0.23333333333333	0
bin	-0.2	0
bin	-0.16666666666667	0
bin	-0.13333333333333	0
bin	-0.1	0
bin	-0.066666666666667	0
bin	-0.033333333333333	0
bin	0	0
bin	0.033333333333333	0
bin	0.066666666666667	0
bin	0.1	0
bin	0.13333333333333	0
bin	0.16666666666667	0
bin	0.2	0
bin	0.23333333333333	0
bin	0.26666666666667	0
bin	0.3	0
bin	0.33333333333333	0
bin	0.36666666666667	0
bin	0.4	0
bin	0.43333333333333	0
bin	0.46666666666667	0
bin	0.5	0
statistic scenarioPRJP1.node[59].wlan.radio 	packetErrorRate:histogram
field count 8965
field mean 0.083306031566282
field stddev 0.26936949506018
field sum 746.83857299172
field sqrsum 712.64332426205
field min 0
field max 1
attr source  packetErrorRate
attr title  "Packet error rate, histogram"
bin	-INF	0
bin	-0.5	0
bin	-0.46666666666667	0
bin	-0.43333333333333	0
bin	-0.4	0
bin	-0.36666666666667	0
bin	-0.33333333333333	0
bin	-0.3	0
bin	-0.26666666666667	0
bin	-0.23333333333333	0
bin	-0.2	0
bin	-0.16666666666667	0
bin	-0.13333333333333	0
bin	-0.1	0
bin	-0.066666666666667	0
bin	-0.033333333333333	0
bin	0	8067
bin	0.033333333333333	37
bin	0.066666666666667	25
bin	0.1	16
bin	0.13333333333333	17
bin	0.16666666666667	6
bin	0.2	12
bin	0.23333333333333	14
bin	0.26666666666667	5
bin	0.3	12
bin	0.33333333333333	6
bin	0.36666666666667	9
bin	0.4	3
bin	0.43333333333333	4
bin	0.46666666666667	3
bin	0.5	729
statistic scenarioPRJP1.node[59].wlan.radio 	minSNIR:histogram
field count 8965
field mean 4662.4801776294
field stddev 22538.657353043
field sum 41799134.792447
field sqrsum 4748519636202.7
field min 0.00073573814852387
field max 177343.60925677
attr source  minSNIR
attr title  "Min SNIR, histogram"
bin	-INF	0
bin	-19560.749979182	0
bin	-16951.59499777	0
bin	-14342.440016357	0
bin	-11733.285034945	0
bin	-9124.130053532	0
bin	-6514.9750721194	0
bin	-3905.8200907068	0
bin	-1296.6651092943	7146
bin	1312.4898721183	967
bin	3921.6448535309	205
bin	6530.7998349434	86
bin	9139.954816356	77
bin	11749.109797769	37
bin	14358.264779181	38
bin	16967.419760594	45
bin	19576.574742006	61
bin	22185.729723419	18
bin	24794.884704831	24
bin	27404.039686244	5
bin	30013.194667657	15
bin	32622.349649069	6
bin	35231.504630482	7
bin	37840.659611894	4
bin	40449.814593307	7
bin	43058.969574719	1
bin	45668.124556132	1
bin	48277.279537545	1
bin	50886.434518957	7
bin	53495.58950037	1
bin	56104.744481782	0
bin	58713.899463195	206
scalar scenarioPRJP1.node[59].lo0.lo 	droppedPkBitError:count 	0
attr interpolationmode  none
attr source  dropPkBitError
attr title  "packets dropped/bit error, count"
scalar scenarioPRJP1.node[59].lo0.lo 	droppedPkBitError:sum(packetBytes) 	0
attr interpolationmode  none
attr source  dropPkBitError
attr title  "packets dropped/bit error, sum(packetBytes)"
scalar scenarioPRJP1.node[59].lo0.lo 	rcvdPkFromHL:count 	1
attr interpolationmode  none
attr source  packetReceivedFromUpper
attr title  "packets received from higher layer, count"
scalar scenarioPRJP1.node[59].lo0.lo 	rcvdPkFromHL:sum(packetBytes) 	56
attr interpolationmode  none
attr source  packetReceivedFromUpper
attr title  "packets received from higher layer, sum(packetBytes)"
scalar scenarioPRJP1.node[59].lo0.lo 	passedUpPk:count 	1
attr interpolationmode  none
attr source  packetSentToUpper
attr title  "packets passed to higher layer, count"
scalar scenarioPRJP1.node[59].lo0.lo 	passedUpPk:sum(packetBytes) 	56
attr interpolationmode  none
attr source  packetSentToUpper
attr title  "packets passed to higher layer, sum(packetBytes)"
scalar scenarioPRJP1.node[97].app 	"Total sent" 	368
scalar scenarioPRJP1.node[97].app 	"Total received" 	19
scalar scenarioPRJP1.node[97].app 	"Total deleted" 	0
scalar scenarioPRJP1.node[97].app 	dropPk:count 	0
attr interpolationmode  none
attr source  dropPk
attr title  "packets dropped, count"
scalar scenarioPRJP1.node[97].app 	dropPk:sum(packetBytes) 	0
attr interpolationmode  none
attr source  dropPk
attr title  "packets dropped, sum(packetBytes)"
scalar scenarioPRJP1.node[97].app 	outOfOrderPk:count 	0
attr interpolationmode  none
attr source  outOfOrderPk
attr title  "packets received out of order, count"
scalar scenarioPRJP1.node[97].app 	outOfOrderPk:sum(packetBytes) 	0
attr interpolationmode  none
attr source  outOfOrderPk
attr title  "packets received out of order, sum(packetBytes)"
scalar scenarioPRJP1.node[97].app 	rcvdPk:count 	19
attr interpolationmode  none
attr source  rcvdPk
attr title  "packets received, count"
scalar scenarioPRJP1.node[97].app 	rcvdPk:sum(packetBytes) 	9728
attr interpolationmode  none
attr source  rcvdPk
attr title  "packets received, sum(packetBytes)"
statistic scenarioPRJP1.node[97].app 	endToEndDelay:histogram
field count 19
field mean 0.064732441963053
field stddev 0.23061529208481
field sum 1.229916397298
field sqrsum 1.036916924788
field min 0.000984025215
field max 1.013883718793
attr interpolationmode  none
attr source  messageAge(rcvdPk)
attr title  "delay, histogram"
attr unit  s
bin	-INF	0
bin	-0.505465821574	0
bin	-0.43793917533547	0
bin	-0.37041252909693	0
bin	-0.3028858828584	0
bin	-0.23535923661987	0
bin	-0.16783259038133	0
bin	-0.1003059441428	0
bin	-0.032779297904267	15
bin	0.034747348334267	3
bin	0.1022739945728	0
bin	0.16980064081133	0
bin	0.23732728704987	0
bin	0.3048539332884	0
bin	0.37238057952693	0
bin	0.43990722576547	0
bin	0.507433872004	0
bin	0.57496051824253	0
bin	0.64248716448107	0
bin	0.7100138107196	0
bin	0.77754045695813	0
bin	0.84506710319667	0
bin	0.9125937494352	0
bin	0.98012039567373	1
bin	1.0476470419123	0
bin	1.1151736881508	0
bin	1.1827003343893	0
bin	1.2502269806279	0
bin	1.3177536268664	0
bin	1.3852802731049	0
bin	1.4528069193435	0
bin	1.520333565582	0
scalar scenarioPRJP1.node[97].app 	sentPk:count 	368
attr interpolationmode  none
attr source  sentPk
attr title  "packets sent, count"
scalar scenarioPRJP1.node[97].app 	sentPk:sum(packetBytes) 	188416
attr interpolationmode  none
attr source  sentPk
attr title  "packets sent, sum(packetBytes)"
scalar scenarioPRJP1.node[97].udp 	droppedPkBadChecksum:count 	0
attr interpolationmode  none
attr title  "packets dropped (checksum error), count"
scalar scenarioPRJP1.node[97].udp 	droppedPkWrongPort:count 	0
attr interpolationmode  none
attr title  "packets dropped (wrong port), count"
scalar scenarioPRJP1.node[97].udp 	passedUpPk:count 	19
attr interpolationmode  none
attr title  "packets passed up, count"
scalar scenarioPRJP1.node[97].udp 	rcvdPk:count 	19
attr interpolationmode  none
attr source  rcvdPk
attr title  "packets received, count"
scalar scenarioPRJP1.node[97].udp 	rcvdPk:sum(packetBytes) 	9880
attr interpolationmode  none
attr source  rcvdPk
attr title  "packets received, sum(packetBytes)"
scalar scenarioPRJP1.node[97].udp 	sentPk:count 	368
attr interpolationmode  none
attr source  sentPk
attr title  "packets sent, count"
scalar scenarioPRJP1.node[97].udp 	sentPk:sum(packetBytes) 	191360
attr interpolationmode  none
attr source  sentPk
attr title  "packets sent, sum(packetBytes)"
scalar scenarioPRJP1.node[97].networkLayer.arp 	failedARPResolution:count 	0
attr title  "ARP failed resolutions, count"
scalar scenarioPRJP1.node[97].networkLayer.arp 	completedARPResolution:count 	64
attr title  "ARP completed resolutions, count"
scalar scenarioPRJP1.node[97].networkLayer.arp 	initiatedARPResolution:count 	8
attr title  "ARP initiated resolutions, count"
scalar scenarioPRJP1.node[97].networkLayer.arp 	sentReply:count 	9
attr title  "ARP replies sent, count"
scalar scenarioPRJP1.node[97].networkLayer.arp 	sentReq:count 	8
attr title  "ARP request sent, count"
scalar scenarioPRJP1.node[97].mobility 	startTime 	9.8
scalar scenarioPRJP1.node[97].mobility 	totalTime 	150.1
scalar scenarioPRJP1.node[97].mobility 	stopTime 	160
scalar scenarioPRJP1.node[97].mobility 	minSpeed 	2.4767651726586e-13
scalar scenarioPRJP1.node[97].mobility 	maxSpeed 	18.213981143897
scalar scenarioPRJP1.node[97].mobility 	totalDistance 	1484.8098742313
scalar scenarioPRJP1.node[97].mobility 	totalCO2Emission 	453.67536695729
scalar scenarioPRJP1.node[97].wlan.mgmt 	dataQueueLen:max 	0
attr interpolationmode  sample-hold
attr title  "data queue length, max"
scalar scenarioPRJP1.node[97].wlan.mgmt 	dataQueueLen:timeavg 	0
attr interpolationmode  sample-hold
attr title  "data queue length, timeavg"
scalar scenarioPRJP1.node[97].wlan.mgmt 	dropPkByQueue:count 	0
attr interpolationmode  none
attr source  dropPkByQueue
attr title  "packets dropped by queue, count"
scalar scenarioPRJP1.node[97].wlan.mgmt 	dropPkByQueue:sum(packetBytes) 	0
attr interpolationmode  none
attr source  dropPkByQueue
attr title  "packets dropped by queue, sum(packetBytes)"
scalar scenarioPRJP1.node[97].wlan.mac 	"number of received packets" 	214
scalar scenarioPRJP1.node[97].wlan.mac 	"number of collisions" 	670
scalar scenarioPRJP1.node[97].wlan.mac 	"number of internal collisions" 	0
scalar scenarioPRJP1.node[97].wlan.mac 	"number of retry for AC 0" 	259
scalar scenarioPRJP1.node[97].wlan.mac 	"number of retry for AC 1" 	0
scalar scenarioPRJP1.node[97].wlan.mac 	"number of retry for AC 2" 	0
scalar scenarioPRJP1.node[97].wlan.mac 	"number of retry for AC 3" 	0
scalar scenarioPRJP1.node[97].wlan.mac 	"sent and received bits" 	3807136
scalar scenarioPRJP1.node[97].wlan.mac 	"sent packet within AC 0" 	128
scalar scenarioPRJP1.node[97].wlan.mac 	"sent packet within AC 1" 	5
scalar scenarioPRJP1.node[97].wlan.mac 	"sent packet within AC 2" 	0
scalar scenarioPRJP1.node[97].wlan.mac 	"sent packet within AC 3" 	0
scalar scenarioPRJP1.node[97].wlan.mac 	"sent in TXOP " 	0
scalar scenarioPRJP1.node[97].wlan.mac 	"sentWithoutRetry AC 0" 	126
scalar scenarioPRJP1.node[97].wlan.mac 	"sentWithoutRetry AC 1" 	5
scalar scenarioPRJP1.node[97].wlan.mac 	"sentWithoutRetry AC 2" 	0
scalar scenarioPRJP1.node[97].wlan.mac 	"sentWithoutRetry AC 3" 	0
scalar scenarioPRJP1.node[97].wlan.mac 	"numGivenUp AC 0" 	42
scalar scenarioPRJP1.node[97].wlan.mac 	"numGivenUp AC 1" 	0
scalar scenarioPRJP1.node[97].wlan.mac 	"numGivenUp AC 2" 	0
scalar scenarioPRJP1.node[97].wlan.mac 	"numGivenUp AC 3" 	0
scalar scenarioPRJP1.node[97].wlan.mac 	"numDropped AC 0" 	0
scalar scenarioPRJP1.node[97].wlan.mac 	"numDropped AC 1" 	0
scalar scenarioPRJP1.node[97].wlan.mac 	"numDropped AC 2" 	0
scalar scenarioPRJP1.node[97].wlan.mac 	"numDropped AC 3" 	0
scalar scenarioPRJP1.node[97].wlan.mac 	rcvdPkFromLL:count 	7703
attr interpolationmode  none
attr source  packetReceivedFromLower
attr title  "packets received from lower layer, count"
scalar scenarioPRJP1.node[97].wlan.mac 	rcvdPkFromLL:sum(packetBytes) 	4129130
attr interpolationmode  none
attr source  packetReceivedFromLower
attr title  "packets received from lower layer, sum(packetBytes)"
scalar scenarioPRJP1.node[97].wlan.mac 	sentDownPk:count 	1039
attr interpolationmode  none
attr source  packetSentToLower
attr title  "packets sent to lower layer, count"
scalar scenarioPRJP1.node[97].wlan.mac 	sentDownPk:sum(packetBytes) 	630760
attr interpolationmode  none
attr source  packetSentToLower
attr title  "packets sent to lower layer, sum(packetBytes)"
scalar scenarioPRJP1.node[97].wlan.mac 	rcvdPkFromHL:count 	566
attr interpolationmode  none
attr source  packetReceivedFromUpper
attr title  "packets received from higher layer, count"
scalar scenarioPRJP1.node[97].wlan.mac 	rcvdPkFromHL:sum(packetBytes) 	497012
attr interpolationmode  none
attr source  packetReceivedFromUpper
attr title  "packets received from higher layer, sum(packetBytes)"
scalar scenarioPRJP1.node[97].wlan.mac 	passedUpPk:count 	2316
attr interpolationmode  none
attr source  packetSentToUpper
attr title  "packets passed to higher layer, count"
scalar scenarioPRJP1.node[97].wlan.mac 	passedUpPk:sum(packetBytes) 	2269816
attr interpolationmode  none
attr source  packetSentToUpper
attr title  "packets passed to higher layer, sum(packetBytes)"
statistic scenarioPRJP1.node[97].wlan.radio 	radioChannel:histogram
field count 1
field mean 3
field stddev -nan
field sum 3
field sqrsum 9
field min 3
field max 3
attr interpolationmode  sample-hold
attr source  radioChannelChanged
attr title  "Radio channel, histogram"
bin	-INF	0
bin	2	0
bin	3	1
bin	4	0
scalar scenarioPRJP1.node[97].wlan.radio 	transmissionState:count 	4156
attr interpolationmode  sample-hold
attr source  transmissionStateChanged
attr title  "Radio transmission state, count"
scalar scenarioPRJP1.node[97].wlan.radio 	receptionState:count 	17536
attr interpolationmode  sample-hold
attr source  receptionStateChanged
attr title  "Radio reception state, count"
scalar scenarioPRJP1.node[97].wlan.radio 	radioMode:count 	2080
attr interpolationmode  sample-hold
attr source  radioModeChanged
attr title  "Radio mode, count"
statistic scenarioPRJP1.node[97].wlan.radio 	symbolErrorRate:histogram
field count 0
field mean -nan
field stddev -nan
field sum 0
field sqrsum 0
field min -nan
field max -nan
attr source  symbolErrorRate
attr title  "Symbol error rate, histogram"
bin	-INF	0
bin	-0.5	0
bin	-0.46666666666667	0
bin	-0.43333333333333	0
bin	-0.4	0
bin	-0.36666666666667	0
bin	-0.33333333333333	0
bin	-0.3	0
bin	-0.26666666666667	0
bin	-0.23333333333333	0
bin	-0.2	0
bin	-0.16666666666667	0
bin	-0.13333333333333	0
bin	-0.1	0
bin	-0.066666666666667	0
bin	-0.033333333333333	0
bin	0	0
bin	0.033333333333333	0
bin	0.066666666666667	0
bin	0.1	0
bin	0.13333333333333	0
bin	0.16666666666667	0
bin	0.2	0
bin	0.23333333333333	0
bin	0.26666666666667	0
bin	0.3	0
bin	0.33333333333333	0
bin	0.36666666666667	0
bin	0.4	0
bin	0.43333333333333	0
bin	0.46666666666667	0
bin	0.5	0
statistic scenarioPRJP1.node[97].wlan.radio 	bitErrorRate:histogram
field count 0
field mean -nan
field stddev -nan
field sum 0
field sqrsum 0
field min -nan
field max -nan
attr source  bitErrorRate
attr title  "Bit error rate, histogram"
bin	-INF	0
bin	-0.5	0
bin	-0.46666666666667	0
bin	-0.43333333333333	0
bin	-0.4	0
bin	-0.36666666666667	0
bin	-0.33333333333333	0
bin	-0.3	0
bin	-0.26666666666667	0
bin	-0.23333333333333	0
bin	-0.2	0
bin	-0.16666666666667	0
bin	-0.13333333333333	0
bin	-0.1	0
bin	-0.066666666666667	0
bin	-0.033333333333333	0
bin	0	0
bin	0.033333333333333	0
bin	0.066666666666667	0
bin	0.1	0
bin	0.13333333333333	0
bin	0.16666666666667	0
bin	0.2	0
bin	0.23333333333333	0
bin	0.26666666666667	0
bin	0.3	0
bin	0.33333333333333	0
bin	0.36666666666667	0
bin	0.4	0
bin	0.43333333333333	0
bin	0.46666666666667	0
bin	0.5	0
statistic scenarioPRJP1.node[97].wlan.radio 	packetErrorRate:histogram
field count 7703
field mean 0.080322277227862
field stddev 0.26346803164042
field sum 618.72250148622
field sqrsum 584.33463956175
field min 0
field max 1
attr source  packetErrorRate
attr title  "Packet error rate, histogram"
bin	-INF	0
bin	-0.031468233829338	0
bin	-0.02727246931876	0
bin	-0.023076704808181	0
bin	-0.018880940297603	0
bin	-0.014685175787025	0
bin	-0.010489411276446	0
bin	-0.0062936467658677	0
bin	-0.0020978822552892	6803
bin	0.0020978822552892	50
bin	0.0062936467658677	21
bin	0.010489411276446	15
bin	0.014685175787025	19
bin	0.018880940297603	16
bin	0.023076704808181	7
bin	0.02727246931876	5
bin	0.031468233829338	5
bin	0.035663998339917	3
bin	0.039859762850495	4
bin	0.044055527361074	4
bin	0.048251291871652	2
bin	0.052447056382231	8
bin	0.056642820892809	3
bin	0.060838585403387	7
bin	0.065034349913966	5
bin	0.069230114424544	3
bin	0.073425878935123	5
bin	0.077621643445701	3
bin	0.08181740795628	1
bin	0.086013172466858	5
bin	0.090208936977437	0
bin	0.094404701488015	709
statistic scenarioPRJP1.node[97].wlan.radio 	minSNIR:histogram
field count 7703
field mean 10141.999314618
field stddev 36082.814206549
field sum 78123820.720499
field sqrsum 10820100679360
field min 0.0016567103519442
field max 753239.71518589
attr source  minSNIR
attr title  "Min SNIR, histogram"
bin	-INF	0
bin	-14075.37224301	0
bin	-12198.321011791	0
bin	-10321.269780571	0
bin	-8444.2185493513	0
bin	-6567.1673181317	0
bin	-4690.1160869121	0
bin	-2813.0648556925	0
bin	-936.0136244729	5645
bin	941.0376067467	623
bin	2818.0888379663	302
bin	4695.1400691859	142
bin	6572.1913004055	90
bin	8449.2425316251	42
bin	10326.293762845	50
bin	12203.344994064	43
bin	14080.396225284	41
bin	15957.447456504	38
bin	17834.498687723	32
bin	19711.549918943	28
bin	21588.601150162	37
bin	23465.652381382	21
bin	25342.703612602	4
bin	27219.754843821	13
bin	29096.806075041	28
bin	30973.85730626	4
bin	32850.90853748	10
bin	34727.9597687	11
bin	36605.010999919	2
bin	38482.062231139	13
bin	40359.113462358	6
bin	42236.164693578	478
scalar scenarioPRJP1.node[97].lo0.lo 	droppedPkBitError:count 	0
attr interpolationmode  none
attr source  dropPkBitError
attr title  "packets dropped/bit error, count"
scalar scenarioPRJP1.node[97].lo0.lo 	droppedPkBitError:sum(packetBytes) 	0
attr interpolationmode  none
attr source  dropPkBitError
attr title  "packets dropped/bit error, sum(packetBytes)"
scalar scenarioPRJP1.node[97].lo0.lo 	rcvdPkFromHL:count 	1
attr interpolationmode  none
attr source  packetReceivedFromUpper
attr title  "packets received from higher layer, count"
scalar scenarioPRJP1.node[97].lo0.lo 	rcvdPkFromHL:sum(packetBytes) 	56
attr interpolationmode  none
attr source  packetReceivedFromUpper
attr title  "packets received from higher layer, sum(packetBytes)"
scalar scenarioPRJP1.node[97].lo0.lo 	passedUpPk:count 	1
attr interpolationmode  none
attr source  packetSentToUpper
attr title  "packets passed to higher layer, count"
scalar scenarioPRJP1.node[97].lo0.lo 	passedUpPk:sum(packetBytes) 	56
attr interpolationmode  none
attr source  packetSentToUpper
attr title  "packets passed to higher layer, sum(packetBytes)"
scalar scenarioPRJP1.node[48].app 	"Total sent" 	374
scalar scenarioPRJP1.node[48].app 	"Total received" 	23
scalar scenarioPRJP1.node[48].app 	"Total deleted" 	0
scalar scenarioPRJP1.node[48].app 	dropPk:count 	0
attr interpolationmode  none
attr source  dropPk
attr title  "packets dropped, count"
scalar scenarioPRJP1.node[48].app 	dropPk:sum(packetBytes) 	0
attr interpolationmode  none
attr source  dropPk
attr title  "packets dropped, sum(packetBytes)"
scalar scenarioPRJP1.node[48].app 	outOfOrderPk:count 	0
attr interpolationmode  none
attr source  outOfOrderPk
attr title  "packets received out of order, count"
scalar scenarioPRJP1.node[48].app 	outOfOrderPk:sum(packetBytes) 	0
attr interpolationmode  none
attr source  outOfOrderPk
attr title  "packets received out of order, sum(packetBytes)"
scalar scenarioPRJP1.node[48].app 	rcvdPk:count 	23
attr interpolationmode  none
attr source  rcvdPk
attr title  "packets received, count"
scalar scenarioPRJP1.node[48].app 	rcvdPk:sum(packetBytes) 	11776
attr interpolationmode  none
attr source  rcvdPk
attr title  "packets received, sum(packetBytes)"
statistic scenarioPRJP1.node[48].app 	endToEndDelay:histogram
field count 23
field mean 0.147397699292
field stddev 0.45737016921114
field sum 3.390147083716
field sqrsum 5.1018242574543
field min 0.00101017051
field max 2.002423742155
attr interpolationmode  none
attr source  messageAge(rcvdPk)
attr title  "delay, histogram"
attr unit  s
bin	-INF	0
bin	-0.9996966153125	0
bin	-0.8662690438695	0
bin	-0.7328414724265	0
bin	-0.5994139009835	0
bin	-0.4659863295405	0
bin	-0.3325587580975	0
bin	-0.1991311866545	0
bin	-0.0657036152115	20
bin	0.0677239562315	1
bin	0.2011515276745	0
bin	0.3345790991175	0
bin	0.4680066705605	0
bin	0.6014342420035	0
bin	0.7348618134465	0
bin	0.8682893848895	0
bin	1.0017169563325	1
bin	1.1351445277755	0
bin	1.2685720992185	0
bin	1.4019996706615	0
bin	1.5354272421045	0
bin	1.6688548135475	0
bin	1.8022823849905	0
bin	1.9357099564335	1
bin	2.0691375278765	0
bin	2.2025650993195	0
bin	2.3359926707625	0
bin	2.4694202422055	0
bin	2.6028478136485	0
bin	2.7362753850915	0
bin	2.8697029565345	0
bin	3.0031305279775	0
scalar scenarioPRJP1.node[48].app 	sentPk:count 	374
attr interpolationmode  none
attr source  sentPk
attr title  "packets sent, count"
scalar scenarioPRJP1.node[48].app 	sentPk:sum(packetBytes) 	191488
attr interpolationmode  none
attr source  sentPk
attr title  "packets sent, sum(packetBytes)"
scalar scenarioPRJP1.node[48].udp 	droppedPkBadChecksum:count 	0
attr interpolationmode  none
attr title  "packets dropped (checksum error), count"
scalar scenarioPRJP1.node[48].udp 	droppedPkWrongPort:count 	0
attr interpolationmode  none
attr title  "packets dropped (wrong port), count"
scalar scenarioPRJP1.node[48].udp 	passedUpPk:count 	23
attr interpolationmode  none
attr title  "packets passed up, count"
scalar scenarioPRJP1.node[48].udp 	rcvdPk:count 	23
attr interpolationmode  none
attr source  rcvdPk
attr title  "packets received, count"
scalar scenarioPRJP1.node[48].udp 	rcvdPk:sum(packetBytes) 	11960
attr interpolationmode  none
attr source  rcvdPk
attr title  "packets received, sum(packetBytes)"
scalar scenarioPRJP1.node[48].udp 	sentPk:count 	374
attr interpolationmode  none
attr source  sentPk
attr title  "packets sent, count"
scalar scenarioPRJP1.node[48].udp 	sentPk:sum(packetBytes) 	194480
attr interpolationmode  none
attr source  sentPk
attr title  "packets sent, sum(packetBytes)"
scalar scenarioPRJP1.node[48].networkLayer.arp 	failedARPResolution:count 	1
attr title  "ARP failed resolutions, count"
scalar scenarioPRJP1.node[48].networkLayer.arp 	completedARPResolution:count 	95
attr title  "ARP completed resolutions, count"
scalar scenarioPRJP1.node[48].networkLayer.arp 	initiatedARPResolution:count 	14
attr title  "ARP initiated resolutions, count"
scalar scenarioPRJP1.node[48].networkLayer.arp 	sentReply:count 	11
attr title  "ARP replies sent, count"
scalar scenarioPRJP1.node[48].networkLayer.arp 	sentReq:count 	22
attr title  "ARP request sent, count"
scalar scenarioPRJP1.node[48].mobility 	startTime 	4.9
scalar scenarioPRJP1.node[48].mobility 	totalTime 	156.5
scalar scenarioPRJP1.node[48].mobility 	stopTime 	161.5
scalar scenarioPRJP1.node[48].mobility 	minSpeed 	2.4757977613754e-13
scalar scenarioPRJP1.node[48].mobility 	maxSpeed 	16.698665082478
scalar scenarioPRJP1.node[48].mobility 	totalDistance 	1485.008028027
scalar scenarioPRJP1.node[48].mobility 	totalCO2Emission 	434.45548688703
scalar scenarioPRJP1.node[48].wlan.mgmt 	dataQueueLen:max 	1
attr interpolationmode  sample-hold
attr title  "data queue length, max"
scalar scenarioPRJP1.node[48].wlan.mgmt 	dataQueueLen:timeavg 	0
attr interpolationmode  sample-hold
attr title  "data queue length, timeavg"
scalar scenarioPRJP1.node[48].wlan.mgmt 	dropPkByQueue:count 	0
attr interpolationmode  none
attr source  dropPkByQueue
attr title  "packets dropped by queue, count"
scalar scenarioPRJP1.node[48].wlan.mgmt 	dropPkByQueue:sum(packetBytes) 	0
attr interpolationmode  none
attr source  dropPkByQueue
attr title  "packets dropped by queue, sum(packetBytes)"
scalar scenarioPRJP1.node[48].wlan.mac 	"number of received packets" 	223
scalar scenarioPRJP1.node[48].wlan.mac 	"number of collisions" 	727
scalar scenarioPRJP1.node[48].wlan.mac 	"number of internal collisions" 	0
scalar scenarioPRJP1.node[48].wlan.mac 	"number of retry for AC 0" 	315
scalar scenarioPRJP1.node[48].wlan.mac 	"number of retry for AC 1" 	36
scalar scenarioPRJP1.node[48].wlan.mac 	"number of retry for AC 2" 	0
scalar scenarioPRJP1.node[48].wlan.mac 	"number of retry for AC 3" 	0
scalar scenarioPRJP1.node[48].wlan.mac 	"sent and received bits" 	4204704
scalar scenarioPRJP1.node[48].wlan.mac 	"sent packet within AC 0" 	97
scalar scenarioPRJP1.node[48].wlan.mac 	"sent packet within AC 1" 	2
scalar scenarioPRJP1.node[48].wlan.mac 	"sent packet within AC 2" 	0
scalar scenarioPRJP1.node[48].wlan.mac 	"sent packet within AC 3" 	0
scalar scenarioPRJP1.node[48].wlan.mac 	"sent in TXOP " 	0
scalar scenarioPRJP1.node[48].wlan.mac 	"sentWithoutRetry AC 0" 	92
scalar scenarioPRJP1.node[48].wlan.mac 	"sentWithoutRetry AC 1" 	2
scalar scenarioPRJP1.node[48].wlan.mac 	"sentWithoutRetry AC 2" 	0
scalar scenarioPRJP1.node[48].wlan.mac 	"sentWithoutRetry AC 3" 	0
scalar scenarioPRJP1.node[48].wlan.mac 	"numGivenUp AC 0" 	50
scalar scenarioPRJP1.node[48].wlan.mac 	"numGivenUp AC 1" 	6
scalar scenarioPRJP1.node[48].wlan.mac 	"numGivenUp AC 2" 	0
scalar scenarioPRJP1.node[48].wlan.mac 	"numGivenUp AC 3" 	0
scalar scenarioPRJP1.node[48].wlan.mac 	"numDropped AC 0" 	0
scalar scenarioPRJP1.node[48].wlan.mac 	"numDropped AC 1" 	0
scalar scenarioPRJP1.node[48].wlan.mac 	"numDropped AC 2" 	0
scalar scenarioPRJP1.node[48].wlan.mac 	"numDropped AC 3" 	0
scalar scenarioPRJP1.node[48].wlan.mac 	rcvdPkFromLL:count 	8795
attr interpolationmode  none
attr source  packetReceivedFromLower
attr title  "packets received from lower layer, count"
scalar scenarioPRJP1.node[48].wlan.mac 	rcvdPkFromLL:sum(packetBytes) 	4748548
attr interpolationmode  none
attr source  packetReceivedFromLower
attr title  "packets received from lower layer, sum(packetBytes)"
scalar scenarioPRJP1.node[48].wlan.mac 	sentDownPk:count 	1200
attr interpolationmode  none
attr source  packetSentToLower
attr title  "packets sent to lower layer, count"
scalar scenarioPRJP1.node[48].wlan.mac 	sentDownPk:sum(packetBytes) 	724894
attr interpolationmode  none
attr source  packetSentToLower
attr title  "packets sent to lower layer, sum(packetBytes)"
scalar scenarioPRJP1.node[48].wlan.mac 	rcvdPkFromHL:count 	626
attr interpolationmode  none
attr source  packetReceivedFromUpper
attr title  "packets received from higher layer, count"
scalar scenarioPRJP1.node[48].wlan.mac 	rcvdPkFromHL:sum(packetBytes) 	552380
attr interpolationmode  none
attr source  packetReceivedFromUpper
attr title  "packets received from higher layer, sum(packetBytes)"
scalar scenarioPRJP1.node[48].wlan.mac 	passedUpPk:count 	2786
attr interpolationmode  none
attr source  packetSentToUpper
attr title  "packets passed to higher layer, count"
scalar scenarioPRJP1.node[48].wlan.mac 	passedUpPk:sum(packetBytes) 	2720076
attr interpolationmode  none
attr source  packetSentToUpper
attr title  "packets passed to higher layer, sum(packetBytes)"
statistic scenarioPRJP1.node[48].wlan.radio 	radioChannel:histogram
field count 1
field mean 3
field stddev -nan
field sum 3
field sqrsum 9
field min 3
field max 3
attr interpolationmode  sample-hold
attr source  radioChannelChanged
attr title  "Radio channel, histogram"
bin	-INF	0
bin	2	0
bin	3	1
bin	4	0
scalar scenarioPRJP1.node[48].wlan.radio 	transmissionState:count 	4800
attr interpolationmode  sample-hold
attr source  transmissionStateChanged
attr title  "Radio transmission state, count"
scalar scenarioPRJP1.node[48].wlan.radio 	receptionState:count 	20092
attr interpolationmode  sample-hold
attr source  receptionStateChanged
attr title  "Radio reception state, count"
scalar scenarioPRJP1.node[48].wlan.radio 	radioMode:count 	2402
attr interpolationmode  sample-hold
attr source  radioModeChanged
attr title  "Radio mode, count"
statistic scenarioPRJP1.node[48].wlan.radio 	symbolErrorRate:histogram
field count 0
field mean -nan
field stddev -nan
field sum 0
field sqrsum 0
field min -nan
field max -nan
attr source  symbolErrorRate
attr title  "Symbol error rate, histogram"
bin	-INF	0
bin	-0.5	0
bin	-0.46666666666667	0
bin	-0.43333333333333	0
bin	-0.4	0
bin	-0.36666666666667	0
bin	-0.33333333333333	0
bin	-0.3	0
bin	-0.26666666666667	0
bin	-0.23333333333333	0
bin	-0.2	0
bin	-0.16666666666667	0
bin	-0.13333333333333	0
bin	-0.1	0
bin	-0.066666666666667	0
bin	-0.033333333333333	0
bin	0	0
bin	0.033333333333333	0
bin	0.066666666666667	0
bin	0.1	0
bin	0.13333333333333	0
bin	0.16666666666667	0
bin	0.2	0
bin	0.23333333333333	0
bin	0.26666666666667	0
bin	0.3	0
bin	0.33333333333333	0
bin	0.36666666666667	0
bin	0.4	0
bin	0.43333333333333	0
bin	0.46666666666667	0
bin	0.5	0
statistic scenarioPRJP1.node[48].wlan.radio 	bitErrorRate:histogram
field count 0
field mean -nan
field stddev -nan
field sum 0
field sqrsum 0
field min -nan
field max -nan
attr source  bitErrorRate
attr title  "Bit error rate, histogram"
bin	-INF	0
bin	-0.5	0
bin	-0.46666666666667	0
bin	-0.43333333333333	0
bin	-0.4	0
bin	-0.36666666666667	0
bin	-0.33333333333333	0
bin	-0.3	0
bin	-0.26666666666667	0
bin	-0.23333333333333	0
bin	-0.2	0
bin	-0.16666666666667	0
bin	-0.13333333333333	0
bin	-0.1	0
bin	-0.066666666666667	0
bin	-0.033333333333333	0
bin	0	0
bin	0.033333333333333	0
bin	0.066666666666667	0
bin	0.1	0
bin	0.13333333333333	0
bin	0.16666666666667	0
bin	0.2	0
bin	0.23333333333333	0
bin	0.26666666666667	0
bin	0.3	0
bin	0.33333333333333	0
bin	0.36666666666667	0
bin	0.4	0
bin	0.43333333333333	0
bin	0.46666666666667	0
bin	0.5	0
statistic scenarioPRJP1.node[48].wlan.radio 	packetErrorRate:histogram
field count 8795
field mean 0.077945802029095
field stddev 0.26126004961688
field sum 685.53332884589
field sqrsum 653.68486328058
field min 0
field max 1
attr source  packetErrorRate
attr title  "Packet error rate, histogram"
bin	-INF	0
bin	-0.001140931836013	0
bin	-0.00098880759121131	0
bin	-0.00083668334640957	0
bin	-0.00068455910160783	0
bin	-0.00053243485680609	0
bin	-0.00038031061200435	0
bin	-0.00022818636720261	0
bin	-7.606212240087e-05	7653
bin	7.606212240087e-05	71
bin	0.00022818636720261	16
bin	0.00038031061200435	12
bin	0.00053243485680609	9
bin	0.00068455910160783	10
bin	0.00083668334640957	10
bin	0.00098880759121131	9
bin	0.001140931836013	8
bin	0.0012930560808148	5
bin	0.0014451803256165	1
bin	0.0015973045704183	4
bin	0.00174942881522	3
bin	0.0019015530600217	6
bin	0.0020536773048235	5
bin	0.0022058015496252	5
bin	0.002357925794427	1
bin	0.0025100500392287	6
bin	0.0026621742840304	3
bin	0.0028142985288322	2
bin	0.0029664227736339	3
bin	0.0031185470184357	1
bin	0.0032706712632374	3
bin	0.0034227955080391	949
statistic scenarioPRJP1.node[48].wlan.radio 	minSNIR:histogram
field count 8795
field mean 2854.409770178
field stddev 29906.99267465
field sum 25104533.928716
field sqrsum 7937260313062.5
field min 0.0013618108898788
field max 753239.71902274
attr source  minSNIR
attr title  "Min SNIR, histogram"
bin	-INF	0
bin	-24390.053055425	0
bin	-21137.636715508	0
bin	-17885.220375592	0
bin	-14632.804035675	0
bin	-11380.387695759	0
bin	-8127.971355842	0
bin	-4875.5550159254	0
bin	-1623.1386760088	7713
bin	1629.2776639077	555
bin	4881.6940038243	164
bin	8134.1103437408	105
bin	11386.526683657	56
bin	14638.943023574	15
bin	17891.35936349	23
bin	21143.775703407	15
bin	24396.192043324	33
bin	27648.60838324	23
bin	30901.024723157	9
bin	34153.441063073	4
bin	37405.85740299	5
bin	40658.273742906	3
bin	43910.690082823	3
bin	47163.106422739	7
bin	50415.522762656	2
bin	53667.939102573	3
bin	56920.355442489	4
bin	60172.771782406	2
bin	63425.188122322	2
bin	66677.604462239	3
bin	69930.020802155	0
bin	73182.437142072	46
scalar scenarioPRJP1.node[48].lo0.lo 	droppedPkBitError:count 	0
attr interpolationmode  none
attr source  dropPkBitError
attr title  "packets dropped/bit error, count"
scalar scenarioPRJP1.node[48].lo0.lo 	droppedPkBitError:sum(packetBytes) 	0
attr interpolationmode  none
attr source  dropPkBitError
attr title  "packets dropped/bit error, sum(packetBytes)"
scalar scenarioPRJP1.node[48].lo0.lo 	rcvdPkFromHL:count 	1
attr interpolationmode  none
attr source  packetReceivedFromUpper
attr title  "packets received from higher layer, count"
scalar scenarioPRJP1.node[48].lo0.lo 	rcvdPkFromHL:sum(packetBytes) 	56
attr interpolationmode  none
attr source  packetReceivedFromUpper
attr title  "packets received from higher layer, sum(packetBytes)"
scalar scenarioPRJP1.node[48].lo0.lo 	passedUpPk:count 	1
attr interpolationmode  none
attr source  packetSentToUpper
attr title  "packets passed to higher layer, count"
scalar scenarioPRJP1.node[48].lo0.lo 	passedUpPk:sum(packetBytes) 	56
attr interpolationmode  none
attr source  packetSentToUpper
attr title  "packets passed to higher layer, sum(packetBytes)"
scalar scenarioPRJP1.node[33].app 	"Total sent" 	612
scalar scenarioPRJP1.node[33].app 	"Total received" 	32
scalar scenarioPRJP1.node[33].app 	"Total deleted" 	0
scalar scenarioPRJP1.node[33].app 	dropPk:count 	0
attr interpolationmode  none
attr source  dropPk
attr title  "packets dropped, count"
scalar scenarioPRJP1.node[33].app 	dropPk:sum(packetBytes) 	0
attr interpolationmode  none
attr source  dropPk
attr title  "packets dropped, sum(packetBytes)"
scalar scenarioPRJP1.node[33].app 	outOfOrderPk:count 	0
attr interpolationmode  none
attr source  outOfOrderPk
attr title  "packets received out of order, count"
scalar scenarioPRJP1.node[33].app 	outOfOrderPk:sum(packetBytes) 	0
attr interpolationmode  none
attr source  outOfOrderPk
attr title  "packets received out of order, sum(packetBytes)"
scalar scenarioPRJP1.node[33].app 	rcvdPk:count 	32
attr interpolationmode  none
attr source  rcvdPk
attr title  "packets received, count"
scalar scenarioPRJP1.node[33].app 	rcvdPk:sum(packetBytes) 	16384
attr interpolationmode  none
attr source  rcvdPk
attr title  "packets received, sum(packetBytes)"
statistic scenarioPRJP1.node[33].app 	endToEndDelay:histogram
field count 32
field mean 0.15600856599406
field stddev 0.47266773890344
field sum 4.99227411181
field sqrsum 7.7046960586355
field min 0.000945044621
field max 2.033990993248
attr interpolationmode  none
attr source  messageAge(rcvdPk)
attr title  "delay, histogram"
attr unit  s
bin	-INF	0
bin	-1.0155779296925	0
bin	-0.88004153311737	0
bin	-0.74450513654223	0
bin	-0.6089687399671	0
bin	-0.47343234339197	0
bin	-0.33789594681683	0
bin	-0.2023595502417	0
bin	-0.066823153666567	29
bin	0.068713242908567	0
bin	0.2042496394837	0
bin	0.33978603605883	0
bin	0.47532243263397	0
bin	0.6108588292091	0
bin	0.74639522578423	0
bin	0.88193162235937	0
bin	1.0174680189345	1
bin	1.1530044155096	0
bin	1.2885408120848	0
bin	1.4240772086599	0
bin	1.559613605235	1
bin	1.6951500018102	0
bin	1.8306863983853	0
bin	1.9662227949604	1
bin	2.1017591915356	0
bin	2.2372955881107	0
bin	2.3728319846858	0
bin	2.508368381261	0
bin	2.6439047778361	0
bin	2.7794411744112	0
bin	2.9149775709864	0
bin	3.0505139675615	0
scalar scenarioPRJP1.node[33].app 	sentPk:count 	612
attr interpolationmode  none
attr source  sentPk
attr title  "packets sent, count"
scalar scenarioPRJP1.node[33].app 	sentPk:sum(packetBytes) 	313344
attr interpolationmode  none
attr source  sentPk
attr title  "packets sent, sum(packetBytes)"
scalar scenarioPRJP1.node[33].udp 	droppedPkBadChecksum:count 	0
attr interpolationmode  none
attr title  "packets dropped (checksum error), count"
scalar scenarioPRJP1.node[33].udp 	droppedPkWrongPort:count 	0
attr interpolationmode  none
attr title  "packets dropped (wrong port), count"
scalar scenarioPRJP1.node[33].udp 	passedUpPk:count 	32
attr interpolationmode  none
attr title  "packets passed up, count"
scalar scenarioPRJP1.node[33].udp 	rcvdPk:count 	32
attr interpolationmode  none
attr source  rcvdPk
attr title  "packets received, count"
scalar scenarioPRJP1.node[33].udp 	rcvdPk:sum(packetBytes) 	16640
attr interpolationmode  none
attr source  rcvdPk
attr title  "packets received, sum(packetBytes)"
scalar scenarioPRJP1.node[33].udp 	sentPk:count 	612
attr interpolationmode  none
attr source  sentPk
attr title  "packets sent, count"
scalar scenarioPRJP1.node[33].udp 	sentPk:sum(packetBytes) 	318240
attr interpolationmode  none
attr source  sentPk
attr title  "packets sent, sum(packetBytes)"
scalar scenarioPRJP1.node[33].networkLayer.arp 	failedARPResolution:count 	2
attr title  "ARP failed resolutions, count"
scalar scenarioPRJP1.node[33].networkLayer.arp 	completedARPResolution:count 	118
attr title  "ARP completed resolutions, count"
scalar scenarioPRJP1.node[33].networkLayer.arp 	initiatedARPResolution:count 	20
attr title  "ARP initiated resolutions, count"
scalar scenarioPRJP1.node[33].networkLayer.arp 	sentReply:count 	12
attr title  "ARP replies sent, count"
scalar scenarioPRJP1.node[33].networkLayer.arp 	sentReq:count 	29
attr title  "ARP request sent, count"
scalar scenarioPRJP1.node[33].mobility 	startTime 	2.5
scalar scenarioPRJP1.node[33].mobility 	totalTime 	243.9
scalar scenarioPRJP1.node[33].mobility 	stopTime 	246.5
scalar scenarioPRJP1.node[33].mobility 	minSpeed 	2.4758366226697e-13
scalar scenarioPRJP1.node[33].mobility 	maxSpeed 	17.773992631149
scalar scenarioPRJP1.node[33].mobility 	totalDistance 	2234.299515761
scalar scenarioPRJP1.node[33].mobility 	totalCO2Emission 	653.54084174849
scalar scenarioPRJP1.node[33].wlan.mgmt 	dataQueueLen:max 	0
attr interpolationmode  sample-hold
attr title  "data queue length, max"
scalar scenarioPRJP1.node[33].wlan.mgmt 	dataQueueLen:timeavg 	0
attr interpolationmode  sample-hold
attr title  "data queue length, timeavg"
scalar scenarioPRJP1.node[33].wlan.mgmt 	dropPkByQueue:count 	0
attr interpolationmode  none
attr source  dropPkByQueue
attr title  "packets dropped by queue, count"
scalar scenarioPRJP1.node[33].wlan.mgmt 	dropPkByQueue:sum(packetBytes) 	0
attr interpolationmode  none
attr source  dropPkByQueue
attr title  "packets dropped by queue, sum(packetBytes)"
scalar scenarioPRJP1.node[33].wlan.mac 	"number of received packets" 	411
scalar scenarioPRJP1.node[33].wlan.mac 	"number of collisions" 	1349
scalar scenarioPRJP1.node[33].wlan.mac 	"number of internal collisions" 	0
scalar scenarioPRJP1.node[33].wlan.mac 	"number of retry for AC 0" 	407
scalar scenarioPRJP1.node[33].wlan.mac 	"number of retry for AC 1" 	30
scalar scenarioPRJP1.node[33].wlan.mac 	"number of retry for AC 2" 	0
scalar scenarioPRJP1.node[33].wlan.mac 	"number of retry for AC 3" 	0
scalar scenarioPRJP1.node[33].wlan.mac 	"sent and received bits" 	6934944
scalar scenarioPRJP1.node[33].wlan.mac 	"sent packet within AC 0" 	253
scalar scenarioPRJP1.node[33].wlan.mac 	"sent packet within AC 1" 	13
scalar scenarioPRJP1.node[33].wlan.mac 	"sent packet within AC 2" 	0
scalar scenarioPRJP1.node[33].wlan.mac 	"sent packet within AC 3" 	0
scalar scenarioPRJP1.node[33].wlan.mac 	"sent in TXOP " 	0
scalar scenarioPRJP1.node[33].wlan.mac 	"sentWithoutRetry AC 0" 	243
scalar scenarioPRJP1.node[33].wlan.mac 	"sentWithoutRetry AC 1" 	13
scalar scenarioPRJP1.node[33].wlan.mac 	"sentWithoutRetry AC 2" 	0
scalar scenarioPRJP1.node[33].wlan.mac 	"sentWithoutRetry AC 3" 	0
scalar scenarioPRJP1.node[33].wlan.mac 	"numGivenUp AC 0" 	62
scalar scenarioPRJP1.node[33].wlan.mac 	"numGivenUp AC 1" 	5
scalar scenarioPRJP1.node[33].wlan.mac 	"numGivenUp AC 2" 	0
scalar scenarioPRJP1.node[33].wlan.mac 	"numGivenUp AC 3" 	0
scalar scenarioPRJP1.node[33].wlan.mac 	"numDropped AC 0" 	0
scalar scenarioPRJP1.node[33].wlan.mac 	"numDropped AC 1" 	0
scalar scenarioPRJP1.node[33].wlan.mac 	"numDropped AC 2" 	0
scalar scenarioPRJP1.node[33].wlan.mac 	"numDropped AC 3" 	0
scalar scenarioPRJP1.node[33].wlan.mac 	rcvdPkFromLL:count 	10340
attr interpolationmode  none
attr source  packetReceivedFromLower
attr title  "packets received from lower layer, count"
scalar scenarioPRJP1.node[33].wlan.mac 	rcvdPkFromLL:sum(packetBytes) 	6211594
attr interpolationmode  none
attr source  packetReceivedFromLower
attr title  "packets received from lower layer, sum(packetBytes)"
scalar scenarioPRJP1.node[33].wlan.mac 	sentDownPk:count 	1896
attr interpolationmode  none
attr source  packetSentToLower
attr title  "packets sent to lower layer, count"
scalar scenarioPRJP1.node[33].wlan.mac 	sentDownPk:sum(packetBytes) 	1131650
attr interpolationmode  none
attr source  packetSentToLower
attr title  "packets sent to lower layer, sum(packetBytes)"
scalar scenarioPRJP1.node[33].wlan.mac 	rcvdPkFromHL:count 	1048
attr interpolationmode  none
attr source  packetReceivedFromUpper
attr title  "packets received from higher layer, count"
scalar scenarioPRJP1.node[33].wlan.mac 	rcvdPkFromHL:sum(packetBytes) 	900992
attr interpolationmode  none
attr source  packetReceivedFromUpper
attr title  "packets received from higher layer, sum(packetBytes)"
scalar scenarioPRJP1.node[33].wlan.mac 	passedUpPk:count 	4038
attr interpolationmode  none
attr source  packetSentToUpper
attr title  "packets passed to higher layer, count"
scalar scenarioPRJP1.node[33].wlan.mac 	passedUpPk:sum(packetBytes) 	3965916
attr interpolationmode  none
attr source  packetSentToUpper
attr title  "packets passed to higher layer, sum(packetBytes)"
statistic scenarioPRJP1.node[33].wlan.radio 	radioChannel:histogram
field count 1
field mean 3
field stddev -nan
field sum 3
field sqrsum 9
field min 3
field max 3
attr interpolationmode  sample-hold
attr source  radioChannelChanged
attr title  "Radio channel, histogram"
bin	-INF	0
bin	2	0
bin	3	1
bin	4	0
scalar scenarioPRJP1.node[33].wlan.radio 	transmissionState:count 	7584
attr interpolationmode  sample-hold
attr source  transmissionStateChanged
attr title  "Radio transmission state, count"
scalar scenarioPRJP1.node[33].wlan.radio 	receptionState:count 	24630
attr interpolationmode  sample-hold
attr source  receptionStateChanged
attr title  "Radio reception state, count"
scalar scenarioPRJP1.node[33].wlan.radio 	radioMode:count 	3794
attr interpolationmode  sample-hold
attr source  radioModeChanged
attr title  "Radio mode, count"
statistic scenarioPRJP1.node[33].wlan.radio 	symbolErrorRate:histogram
field count 0
field mean -nan
field stddev -nan
field sum 0
field sqrsum 0
field min -nan
field max -nan
attr source  symbolErrorRate
attr title  "Symbol error rate, histogram"
bin	-INF	0
bin	-0.5	0
bin	-0.46666666666667	0
bin	-0.43333333333333	0
bin	-0.4	0
bin	-0.36666666666667	0
bin	-0.33333333333333	0
bin	-0.3	0
bin	-0.26666666666667	0
bin	-0.23333333333333	0
bin	-0.2	0
bin	-0.16666666666667	0
bin	-0.13333333333333	0
bin	-0.1	0
bin	-0.066666666666667	0
bin	-0.033333333333333	0
bin	0	0
bin	0.033333333333333	0
bin	0.066666666666667	0
bin	0.1	0
bin	0.13333333333333	0
bin	0.16666666666667	0
bin	0.2	0
bin	0.23333333333333	0
bin	0.26666666666667	0
bin	0.3	0
bin	0.33333333333333	0
bin	0.36666666666667	0
bin	0.4	0
bin	0.43333333333333	0
bin	0.46666666666667	0
bin	0.5	0
statistic scenarioPRJP1.node[33].wlan.radio 	bitErrorRate:histogram
field count 0
field mean -nan
field stddev -nan
field sum 0
field sqrsum 0
field min -nan
field max -nan
attr source  bitErrorRate
attr title  "Bit error rate, histogram"
bin	-INF	0
bin	-0.5	0
bin	-0.46666666666667	0
bin	-0.43333333333333	0
bin	-0.4	0
bin	-0.36666666666667	0
bin	-0.33333333333333	0
bin	-0.3	0
bin	-0.26666666666667	0
bin	-0.23333333333333	0
bin	-0.2	0
bin	-0.16666666666667	0
bin	-0.13333333333333	0
bin	-0.1	0
bin	-0.066666666666667	0
bin	-0.033333333333333	0
bin	0	0
bin	0.033333333333333	0
bin	0.066666666666667	0
bin	0.1	0
bin	0.13333333333333	0
bin	0.16666666666667	0
bin	0.2	0
bin	0.23333333333333	0
bin	0.26666666666667	0
bin	0.3	0
bin	0.33333333333333	0
bin	0.36666666666667	0
bin	0.4	0
bin	0.43333333333333	0
bin	0.46666666666667	0
bin	0.5	0
statistic scenarioPRJP1.node[33].wlan.radio 	packetErrorRate:histogram
field count 10340
field mean 0.12254439961965
field stddev 0.31987861733178
field sum 1267.1090920672
field sqrsum 1213.187691012
field min 0
field max 1
attr source  packetErrorRate
attr title  "Packet error rate, histogram"
bin	-INF	0
bin	-0.10341468409208	0
bin	-0.08962605954647	0
bin	-0.075837435000859	0
bin	-0.062048810455249	0
bin	-0.048260185909638	0
bin	-0.034471561364027	0
bin	-0.020682936818416	0
bin	-0.0068943122728054	8729
bin	0.0068943122728054	78
bin	0.020682936818416	44
bin	0.034471561364027	33
bin	0.048260185909638	15
bin	0.062048810455249	15
bin	0.075837435000859	17
bin	0.08962605954647	12
bin	0.10341468409208	9
bin	0.11720330863769	12
bin	0.1309919331833	16
bin	0.14478055772891	8
bin	0.15856918227452	4
bin	0.17235780682013	6
bin	0.18614643136575	10
bin	0.19993505591136	9
bin	0.21372368045697	2
bin	0.22751230500258	5
bin	0.24130092954819	4
bin	0.2550895540938	3
bin	0.26887817863941	4
bin	0.28266680318502	6
bin	0.29645542773063	2
bin	0.31024405227624	1297
statistic scenarioPRJP1.node[33].wlan.radio 	minSNIR:histogram
field count 10340
field mean 10006.374990748
field stddev 65076.633191604
field sum 103465917.40433
field sqrsum 44820654859436
field min 0.013243581367639
field max 753239.71923443
attr source  minSNIR
attr title  "Min SNIR, histogram"
bin	-INF	0
bin	-19532.452876648	0
bin	-16927.817483498	0
bin	-14323.182090348	0
bin	-11718.546697197	0
bin	-9113.9113040473	0
bin	-6509.2759108972	0
bin	-3904.640517747	0
bin	-1300.0051245968	8632
bin	1304.6302685534	464
bin	3909.2656617035	203
bin	6513.9010548537	138
bin	9118.5364480039	95
bin	11723.171841154	114
bin	14327.807234304	61
bin	16932.442627454	45
bin	19537.078020605	53
bin	22141.713413755	26
bin	24746.348806905	34
bin	27350.984200055	23
bin	29955.619593205	17
bin	32560.254986355	22
bin	35164.890379506	19
bin	37769.525772656	14
bin	40374.161165806	9
bin	42978.796558956	15
bin	45583.431952106	18
bin	48188.067345256	6
bin	50792.702738407	3
bin	53397.338131557	9
bin	56001.973524707	11
bin	58606.608917857	309
scalar scenarioPRJP1.node[33].lo0.lo 	droppedPkBitError:count 	0
attr interpolationmode  none
attr source  dropPkBitError
attr title  "packets dropped/bit error, count"
scalar scenarioPRJP1.node[33].lo0.lo 	droppedPkBitError:sum(packetBytes) 	0
attr interpolationmode  none
attr source  dropPkBitError
attr title  "packets dropped/bit error, sum(packetBytes)"
scalar scenarioPRJP1.node[33].lo0.lo 	rcvdPkFromHL:count 	2
attr interpolationmode  none
attr source  packetReceivedFromUpper
attr title  "packets received from higher layer, count"
scalar scenarioPRJP1.node[33].lo0.lo 	rcvdPkFromHL:sum(packetBytes) 	112
attr interpolationmode  none
attr source  packetReceivedFromUpper
attr title  "packets received from higher layer, sum(packetBytes)"
scalar scenarioPRJP1.node[33].lo0.lo 	passedUpPk:count 	2
attr interpolationmode  none
attr source  packetSentToUpper
attr title  "packets passed to higher layer, count"
scalar scenarioPRJP1.node[33].lo0.lo 	passedUpPk:sum(packetBytes) 	112
attr interpolationmode  none
attr source  packetSentToUpper
attr title  "packets passed to higher layer, sum(packetBytes)"
scalar scenarioPRJP1.node[95].app 	"Total sent" 	726
scalar scenarioPRJP1.node[95].app 	"Total received" 	54
scalar scenarioPRJP1.node[95].app 	"Total deleted" 	0
scalar scenarioPRJP1.node[95].app 	dropPk:count 	0
attr interpolationmode  none
attr source  dropPk
attr title  "packets dropped, count"
scalar scenarioPRJP1.node[95].app 	dropPk:sum(packetBytes) 	0
attr interpolationmode  none
attr source  dropPk
attr title  "packets dropped, sum(packetBytes)"
scalar scenarioPRJP1.node[95].app 	outOfOrderPk:count 	0
attr interpolationmode  none
attr source  outOfOrderPk
attr title  "packets received out of order, count"
scalar scenarioPRJP1.node[95].app 	outOfOrderPk:sum(packetBytes) 	0
attr interpolationmode  none
attr source  outOfOrderPk
attr title  "packets received out of order, sum(packetBytes)"
scalar scenarioPRJP1.node[95].app 	rcvdPk:count 	54
attr interpolationmode  none
attr source  rcvdPk
attr title  "packets received, count"
scalar scenarioPRJP1.node[95].app 	rcvdPk:sum(packetBytes) 	27648
attr interpolationmode  none
attr source  rcvdPk
attr title  "packets received, sum(packetBytes)"
statistic scenarioPRJP1.node[95].app 	endToEndDelay:histogram
field count 54
field mean 0.15338838256863
field stddev 0.42581545820154
field sum 8.282972658706
field sqrsum 10.880408414479
field min 0.000945049838
field max 2.001305077118
attr interpolationmode  none
attr source  messageAge(rcvdPk)
attr title  "delay, histogram"
attr unit  s
bin	-INF	0
bin	-0.999234963802	0
bin	-0.86587762865	0
bin	-0.732520293498	0
bin	-0.599162958346	0
bin	-0.465805623194	0
bin	-0.332448288042	0
bin	-0.19909095289	0
bin	-0.065733617738	46
bin	0.067623717414	1
bin	0.200981052566	1
bin	0.334338387718	0
bin	0.46769572287	1
bin	0.601053058022	0
bin	0.734410393174	0
bin	0.867767728326	0
bin	1.001125063478	2
bin	1.13448239863	0
bin	1.267839733782	1
bin	1.401197068934	0
bin	1.534554404086	1
bin	1.667911739238	0
bin	1.80126907439	0
bin	1.934626409542	1
bin	2.067983744694	0
bin	2.201341079846	0
bin	2.334698414998	0
bin	2.46805575015	0
bin	2.601413085302	0
bin	2.734770420454	0
bin	2.868127755606	0
bin	3.001485090758	0
scalar scenarioPRJP1.node[95].app 	sentPk:count 	726
attr interpolationmode  none
attr source  sentPk
attr title  "packets sent, count"
scalar scenarioPRJP1.node[95].app 	sentPk:sum(packetBytes) 	371712
attr interpolationmode  none
attr source  sentPk
attr title  "packets sent, sum(packetBytes)"
scalar scenarioPRJP1.node[95].udp 	droppedPkBadChecksum:count 	0
attr interpolationmode  none
attr title  "packets dropped (checksum error), count"
scalar scenarioPRJP1.node[95].udp 	droppedPkWrongPort:count 	0
attr interpolationmode  none
attr title  "packets dropped (wrong port), count"
scalar scenarioPRJP1.node[95].udp 	passedUpPk:count 	54
attr interpolationmode  none
attr title  "packets passed up, count"
scalar scenarioPRJP1.node[95].udp 	rcvdPk:count 	54
attr interpolationmode  none
attr source  rcvdPk
attr title  "packets received, count"
scalar scenarioPRJP1.node[95].udp 	rcvdPk:sum(packetBytes) 	28080
attr interpolationmode  none
attr source  rcvdPk
attr title  "packets received, sum(packetBytes)"
scalar scenarioPRJP1.node[95].udp 	sentPk:count 	726
attr interpolationmode  none
attr source  sentPk
attr title  "packets sent, count"
scalar scenarioPRJP1.node[95].udp 	sentPk:sum(packetBytes) 	377520
attr interpolationmode  none
attr source  sentPk
attr title  "packets sent, sum(packetBytes)"
scalar scenarioPRJP1.node[95].networkLayer.arp 	failedARPResolution:count 	4
attr title  "ARP failed resolutions, count"
scalar scenarioPRJP1.node[95].networkLayer.arp 	completedARPResolution:count 	210
attr title  "ARP completed resolutions, count"
scalar scenarioPRJP1.node[95].networkLayer.arp 	initiatedARPResolution:count 	29
attr title  "ARP initiated resolutions, count"
scalar scenarioPRJP1.node[95].networkLayer.arp 	sentReply:count 	17
attr title  "ARP replies sent, count"
scalar scenarioPRJP1.node[95].networkLayer.arp 	sentReq:count 	49
attr title  "ARP request sent, count"
scalar scenarioPRJP1.node[95].mobility 	startTime 	9.8
scalar scenarioPRJP1.node[95].mobility 	totalTime 	272.8
scalar scenarioPRJP1.node[95].mobility 	stopTime 	282.7
scalar scenarioPRJP1.node[95].mobility 	minSpeed 	2.475685909168e-13
scalar scenarioPRJP1.node[95].mobility 	maxSpeed 	18.668051702087
scalar scenarioPRJP1.node[95].mobility 	totalDistance 	2206.7421652424
scalar scenarioPRJP1.node[95].mobility 	totalCO2Emission 	705.33996133465
scalar scenarioPRJP1.node[95].wlan.mgmt 	dataQueueLen:max 	0
attr interpolationmode  sample-hold
attr title  "data queue length, max"
scalar scenarioPRJP1.node[95].wlan.mgmt 	dataQueueLen:timeavg 	0
attr interpolationmode  sample-hold
attr title  "data queue length, timeavg"
scalar scenarioPRJP1.node[95].wlan.mgmt 	dropPkByQueue:count 	0
attr interpolationmode  none
attr source  dropPkByQueue
attr title  "packets dropped by queue, count"
scalar scenarioPRJP1.node[95].wlan.mgmt 	dropPkByQueue:sum(packetBytes) 	0
attr interpolationmode  none
attr source  dropPkByQueue
attr title  "packets dropped by queue, sum(packetBytes)"
scalar scenarioPRJP1.node[95].wlan.mac 	"number of received packets" 	644
scalar scenarioPRJP1.node[95].wlan.mac 	"number of collisions" 	2342
scalar scenarioPRJP1.node[95].wlan.mac 	"number of internal collisions" 	0
scalar scenarioPRJP1.node[95].wlan.mac 	"number of retry for AC 0" 	883
scalar scenarioPRJP1.node[95].wlan.mac 	"number of retry for AC 1" 	6
scalar scenarioPRJP1.node[95].wlan.mac 	"number of retry for AC 2" 	0
scalar scenarioPRJP1.node[95].wlan.mac 	"number of retry for AC 3" 	0
scalar scenarioPRJP1.node[95].wlan.mac 	"sent and received bits" 	8413056
scalar scenarioPRJP1.node[95].wlan.mac 	"sent packet within AC 0" 	322
scalar scenarioPRJP1.node[95].wlan.mac 	"sent packet within AC 1" 	14
scalar scenarioPRJP1.node[95].wlan.mac 	"sent packet within AC 2" 	0
scalar scenarioPRJP1.node[95].wlan.mac 	"sent packet within AC 3" 	0
scalar scenarioPRJP1.node[95].wlan.mac 	"sent in TXOP " 	0
scalar scenarioPRJP1.node[95].wlan.mac 	"sentWithoutRetry AC 0" 	292
scalar scenarioPRJP1.node[95].wlan.mac 	"sentWithoutRetry AC 1" 	14
scalar scenarioPRJP1.node[95].wlan.mac 	"sentWithoutRetry AC 2" 	0
scalar scenarioPRJP1.node[95].wlan.mac 	"sentWithoutRetry AC 3" 	0
scalar scenarioPRJP1.node[95].wlan.mac 	"numGivenUp AC 0" 	137
scalar scenarioPRJP1.node[95].wlan.mac 	"numGivenUp AC 1" 	1
scalar scenarioPRJP1.node[95].wlan.mac 	"numGivenUp AC 2" 	0
scalar scenarioPRJP1.node[95].wlan.mac 	"numGivenUp AC 3" 	0
scalar scenarioPRJP1.node[95].wlan.mac 	"numDropped AC 0" 	0
scalar scenarioPRJP1.node[95].wlan.mac 	"numDropped AC 1" 	0
scalar scenarioPRJP1.node[95].wlan.mac 	"numDropped AC 2" 	0
scalar scenarioPRJP1.node[95].wlan.mac 	"numDropped AC 3" 	0
scalar scenarioPRJP1.node[95].wlan.mac 	rcvdPkFromLL:count 	21189
attr interpolationmode  none
attr source  packetReceivedFromLower
attr title  "packets received from lower layer, count"
scalar scenarioPRJP1.node[95].wlan.mac 	rcvdPkFromLL:sum(packetBytes) 	11738000
attr interpolationmode  none
attr source  packetReceivedFromLower
attr title  "packets received from lower layer, sum(packetBytes)"
scalar scenarioPRJP1.node[95].wlan.mac 	sentDownPk:count 	2880
attr interpolationmode  none
attr source  packetSentToLower
attr title  "packets sent to lower layer, count"
scalar scenarioPRJP1.node[95].wlan.mac 	sentDownPk:sum(packetBytes) 	1611948
attr interpolationmode  none
attr source  packetSentToLower
attr title  "packets sent to lower layer, sum(packetBytes)"
scalar scenarioPRJP1.node[95].wlan.mac 	rcvdPkFromHL:count 	1347
attr interpolationmode  none
attr source  packetReceivedFromUpper
attr title  "packets received from higher layer, count"
scalar scenarioPRJP1.node[95].wlan.mac 	rcvdPkFromHL:sum(packetBytes) 	1125516
attr interpolationmode  none
attr source  packetReceivedFromUpper
attr title  "packets received from higher layer, sum(packetBytes)"
scalar scenarioPRJP1.node[95].wlan.mac 	passedUpPk:count 	6311
attr interpolationmode  none
attr source  packetSentToUpper
attr title  "packets passed to higher layer, count"
scalar scenarioPRJP1.node[95].wlan.mac 	passedUpPk:sum(packetBytes) 	6169036
attr interpolationmode  none
attr source  packetSentToUpper
attr title  "packets passed to higher layer, sum(packetBytes)"
statistic scenarioPRJP1.node[95].wlan.radio 	radioChannel:histogram
field count 1
field mean 3
field stddev -nan
field sum 3
field sqrsum 9
field min 3
field max 3
attr interpolationmode  sample-hold
attr source  radioChannelChanged
attr title  "Radio channel, histogram"
bin	-INF	0
bin	2	0
bin	3	1
bin	4	0
scalar scenarioPRJP1.node[95].wlan.radio 	transmissionState:count 	11520
attr interpolationmode  sample-hold
attr source  transmissionStateChanged
attr title  "Radio transmission state, count"
scalar scenarioPRJP1.node[95].wlan.radio 	receptionState:count 	48593
attr interpolationmode  sample-hold
attr source  receptionStateChanged
attr title  "Radio reception state, count"
scalar scenarioPRJP1.node[95].wlan.radio 	radioMode:count 	5762
attr interpolationmode  sample-hold
attr source  radioModeChanged
attr title  "Radio mode, count"
statistic scenarioPRJP1.node[95].wlan.radio 	symbolErrorRate:histogram
field count 0
field mean -nan
field stddev -nan
field sum 0
field sqrsum 0
[...]
attr interpolationmode  none
attr source  packetSentToUpper
attr title  "packets passed to higher layer, sum(packetBytes)"
statistic scenarioPRJP1.node[79].wlan.radio 	radioChannel:histogram
field count 1
field mean 3
field stddev -nan
field sum 3
field sqrsum 9
field min 3
field max 3
attr interpolationmode  sample-hold
attr source  radioChannelChanged
attr title  "Radio channel, histogram"
bin	-INF	0
bin	2	0
bin	3	1
bin	4	0
scalar scenarioPRJP1.node[79].wlan.radio 	transmissionState:count 	25844
attr interpolationmode  sample-hold
attr source  transmissionStateChanged
attr title  "Radio transmission state, count"
scalar scenarioPRJP1.node[79].wlan.radio 	receptionState:count 	95225
attr interpolationmode  sample-hold
attr source  receptionStateChanged
attr title  "Radio reception state, count"
scalar scenarioPRJP1.node[79].wlan.radio 	radioMode:count 	12924
attr interpolationmode  sample-hold
attr source  radioModeChanged
attr title  "Radio mode, count"
statistic scenarioPRJP1.node[79].wlan.radio 	symbolErrorRate:histogram
field count 0
field mean -nan
field stddev -nan
field sum 0
field sqrsum 0
field min -nan
field max -nan
attr source  symbolErrorRate
attr title  "Symbol error rate, histogram"
bin	-INF	0
bin	-0.5	0
bin	-0.46666666666667	0
bin	-0.43333333333333	0
bin	-0.4	0
bin	-0.36666666666667	0
bin	-0.33333333333333	0
bin	-0.3	0
bin	-0.26666666666667	0
bin	-0.23333333333333	0
bin	-0.2	0
bin	-0.16666666666667	0
bin	-0.13333333333333	0
bin	-0.1	0
bin	-0.066666666666667	0
bin	-0.033333333333333	0
bin	0	0
bin	0.033333333333333	0
bin	0.066666666666667	0
bin	0.1	0
bin	0.13333333333333	0
bin	0.16666666666667	0
bin	0.2	0
bin	0.23333333333333	0
bin	0.26666666666667	0
bin	0.3	0
bin	0.33333333333333	0
bin	0.36666666666667	0
bin	0.4	0
bin	0.43333333333333	0
bin	0.46666666666667	0
bin	0.5	0
statistic scenarioPRJP1.node[79].wlan.radio 	bitErrorRate:histogram
field count 0
field mean -nan
field stddev -nan
field sum 0
field sqrsum 0
field min -nan
field max -nan
attr source  bitErrorRate
attr title  "Bit error rate, histogram"
bin	-INF	0
bin	-0.5	0
bin	-0.46666666666667	0
bin	-0.43333333333333	0
bin	-0.4	0
bin	-0.36666666666667	0
bin	-0.33333333333333	0
bin	-0.3	0
bin	-0.26666666666667	0
bin	-0.23333333333333	0
bin	-0.2	0
bin	-0.16666666666667	0
bin	-0.13333333333333	0
bin	-0.1	0
bin	-0.066666666666667	0
bin	-0.033333333333333	0
bin	0	0
bin	0.033333333333333	0
bin	0.066666666666667	0
bin	0.1	0
bin	0.13333333333333	0
bin	0.16666666666667	0
bin	0.2	0
bin	0.23333333333333	0
bin	0.26666666666667	0
bin	0.3	0
bin	0.33333333333333	0
bin	0.36666666666667	0
bin	0.4	0
bin	0.43333333333333	0
bin	0.46666666666667	0
bin	0.5	0
statistic scenarioPRJP1.node[79].wlan.radio 	packetErrorRate:histogram
field count 40850
field mean 0.10933601754088
field stddev 0.30361126457485
field sum 4466.3763165449
field sqrsum 4253.7884485399
field min 0
field max 1
attr source  packetErrorRate
attr title  "Packet error rate, histogram"
bin	-INF	0
bin	-0.5	0
bin	-0.46666666666667	0
bin	-0.43333333333333	0
bin	-0.4	0
bin	-0.36666666666667	0
bin	-0.33333333333333	0
bin	-0.3	0
bin	-0.26666666666667	0
bin	-0.23333333333333	0
bin	-0.2	0
bin	-0.16666666666667	0
bin	-0.13333333333333	0
bin	-0.1	0
bin	-0.066666666666667	0
bin	-0.033333333333333	0
bin	0	35508
bin	0.033333333333333	215
bin	0.066666666666667	114
bin	0.1	93
bin	0.13333333333333	84
bin	0.16666666666667	61
bin	0.2	72
bin	0.23333333333333	71
bin	0.26666666666667	47
bin	0.3	38
bin	0.33333333333333	36
bin	0.36666666666667	34
bin	0.4	36
bin	0.43333333333333	38
bin	0.46666666666667	34
bin	0.5	4369
statistic scenarioPRJP1.node[79].wlan.radio 	minSNIR:histogram
field count 40850
field mean 6928.3356581696
field stddev 51898.195459332
field sum 283022511.63623
field sqrsum 1.1198449850229e+14
field min 0.00018792550947722
field max 753239.71923443
attr source  minSNIR
attr title  "Min SNIR, histogram"
bin	-INF	0
bin	-11701.744382299	0
bin	-10140.219480463	0
bin	-8578.6945786265	0
bin	-7017.1696767902	0
bin	-5455.6447749539	0
bin	-3894.1198731176	0
bin	-2332.5949712813	0
bin	-771.07006944504	32931
bin	790.45483239125	2676
bin	2351.9797342275	997
bin	3913.5046360638	585
bin	5475.0295379001	398
bin	7036.5544397364	528
bin	8598.0793415727	180
bin	10159.604243409	217
bin	11721.129145245	192
bin	13282.654047082	129
bin	14844.178948918	107
bin	16405.703850754	137
bin	17967.22875259	85
bin	19528.753654427	68
bin	21090.278556263	109
bin	22651.803458099	56
bin	24213.328359936	88
bin	25774.853261772	54
bin	27336.378163608	42
bin	28897.903065444	12
bin	30459.427967281	30
bin	32020.952869117	23
bin	33582.477770953	25
bin	35144.00267279	1181
scalar scenarioPRJP1.node[79].lo0.lo 	droppedPkBitError:count 	0
attr interpolationmode  none
attr source  dropPkBitError
attr title  "packets dropped/bit error, count"
scalar scenarioPRJP1.node[79].lo0.lo 	droppedPkBitError:sum(packetBytes) 	0
attr interpolationmode  none
attr source  dropPkBitError
attr title  "packets dropped/bit error, sum(packetBytes)"
scalar scenarioPRJP1.node[79].lo0.lo 	rcvdPkFromHL:count 	6
attr interpolationmode  none
attr source  packetReceivedFromUpper
attr title  "packets received from higher layer, count"
scalar scenarioPRJP1.node[79].lo0.lo 	rcvdPkFromHL:sum(packetBytes) 	336
attr interpolationmode  none
attr source  packetReceivedFromUpper
attr title  "packets received from higher layer, sum(packetBytes)"
scalar scenarioPRJP1.node[79].lo0.lo 	passedUpPk:count 	6
attr interpolationmode  none
attr source  packetSentToUpper
attr title  "packets passed to higher layer, count"
scalar scenarioPRJP1.node[79].lo0.lo 	passedUpPk:sum(packetBytes) 	336
attr interpolationmode  none
attr source  packetSentToUpper
attr title  "packets passed to higher layer, sum(packetBytes)"
scalar scenarioPRJP1.node[99].app 	"Total sent" 	2603
scalar scenarioPRJP1.node[99].app 	"Total received" 	151
scalar scenarioPRJP1.node[99].app 	"Total deleted" 	0
scalar scenarioPRJP1.node[99].app 	dropPk:count 	0
attr interpolationmode  none
attr source  dropPk
attr title  "packets dropped, count"
scalar scenarioPRJP1.node[99].app 	dropPk:sum(packetBytes) 	0
attr interpolationmode  none
attr source  dropPk
attr title  "packets dropped, sum(packetBytes)"
scalar scenarioPRJP1.node[99].app 	outOfOrderPk:count 	0
attr interpolationmode  none
attr source  outOfOrderPk
attr title  "packets received out of order, count"
scalar scenarioPRJP1.node[99].app 	outOfOrderPk:sum(packetBytes) 	0
attr interpolationmode  none
attr source  outOfOrderPk
attr title  "packets received out of order, sum(packetBytes)"
scalar scenarioPRJP1.node[99].app 	rcvdPk:count 	151
attr interpolationmode  none
attr source  rcvdPk
attr title  "packets received, count"
scalar scenarioPRJP1.node[99].app 	rcvdPk:sum(packetBytes) 	77312
attr interpolationmode  none
attr source  rcvdPk
attr title  "packets received, sum(packetBytes)"
statistic scenarioPRJP1.node[99].app 	endToEndDelay:histogram
field count 151
field mean 0.13990422467098
field stddev 0.43310475033819
field sum 21.125537925318
field sqrsum 31.092510719025
field min 0.000945023387
field max 2.037972830341
attr interpolationmode  none
attr source  messageAge(rcvdPk)
attr title  "delay, histogram"
attr unit  s
bin	-INF	0
bin	-1.01756888009	0
bin	-0.88176702629307	0
bin	-0.74596517249613	0
bin	-0.6101633186992	0
bin	-0.47436146490227	0
bin	-0.33855961110533	0
bin	-0.2027577573084	0
bin	-0.066955903511467	135
bin	0.068845950285467	2
bin	0.2046478040824	1
bin	0.34044965787933	0
bin	0.47625151167627	0
bin	0.6120533654732	0
bin	0.74785521927013	0
bin	0.88365707306707	3
bin	1.019458926864	4
bin	1.1552607806609	0
bin	1.2910626344579	0
bin	1.4268644882548	0
bin	1.5626663420517	0
bin	1.6984681958487	1
bin	1.8342700496456	0
bin	1.9700719034425	5
bin	2.1058737572395	0
bin	2.2416756110364	0
bin	2.3774774648333	0
bin	2.5132793186303	0
bin	2.6490811724272	0
bin	2.7848830262241	0
bin	2.9206848800211	0
bin	3.056486733818	0
scalar scenarioPRJP1.node[99].app 	sentPk:count 	2603
attr interpolationmode  none
attr source  sentPk
attr title  "packets sent, count"
scalar scenarioPRJP1.node[99].app 	sentPk:sum(packetBytes) 	1332736
attr interpolationmode  none
attr source  sentPk
attr title  "packets sent, sum(packetBytes)"
scalar scenarioPRJP1.node[99].udp 	droppedPkBadChecksum:count 	0
attr interpolationmode  none
attr title  "packets dropped (checksum error), count"
scalar scenarioPRJP1.node[99].udp 	droppedPkWrongPort:count 	0
attr interpolationmode  none
attr title  "packets dropped (wrong port), count"
scalar scenarioPRJP1.node[99].udp 	passedUpPk:count 	151
attr interpolationmode  none
attr title  "packets passed up, count"
scalar scenarioPRJP1.node[99].udp 	rcvdPk:count 	151
attr interpolationmode  none
attr source  rcvdPk
attr title  "packets received, count"
scalar scenarioPRJP1.node[99].udp 	rcvdPk:sum(packetBytes) 	78520
attr interpolationmode  none
attr source  rcvdPk
attr title  "packets received, sum(packetBytes)"
scalar scenarioPRJP1.node[99].udp 	sentPk:count 	2603
attr interpolationmode  none
attr source  sentPk
attr title  "packets sent, count"
scalar scenarioPRJP1.node[99].udp 	sentPk:sum(packetBytes) 	1353560
attr interpolationmode  none
attr source  sentPk
attr title  "packets sent, sum(packetBytes)"
scalar scenarioPRJP1.node[99].networkLayer.arp 	failedARPResolution:count 	4
attr title  "ARP failed resolutions, count"
scalar scenarioPRJP1.node[99].networkLayer.arp 	completedARPResolution:count 	505
attr title  "ARP completed resolutions, count"
scalar scenarioPRJP1.node[99].networkLayer.arp 	initiatedARPResolution:count 	73
attr title  "ARP initiated resolutions, count"
scalar scenarioPRJP1.node[99].networkLayer.arp 	sentReply:count 	58
attr title  "ARP replies sent, count"
scalar scenarioPRJP1.node[99].networkLayer.arp 	sentReq:count 	102
attr title  "ARP request sent, count"
scalar scenarioPRJP1.node[99].mobility 	startTime 	9.8
scalar scenarioPRJP1.node[99].mobility 	totalTime 	940.2
scalar scenarioPRJP1.node[99].mobility 	stopTime 	950
scalar scenarioPRJP1.node[99].mobility 	minSpeed 	2.4755445347375e-13
scalar scenarioPRJP1.node[99].mobility 	maxSpeed 	16.381941705877
scalar scenarioPRJP1.node[99].mobility 	totalDistance 	8545.7816206716
scalar scenarioPRJP1.node[99].mobility 	totalCO2Emission 	2267.0435208719
scalar scenarioPRJP1.node[99].wlan.mgmt 	dataQueueLen:max 	6
attr interpolationmode  sample-hold
attr title  "data queue length, max"
scalar scenarioPRJP1.node[99].wlan.mgmt 	dataQueueLen:timeavg 	0
attr interpolationmode  sample-hold
attr title  "data queue length, timeavg"
scalar scenarioPRJP1.node[99].wlan.mgmt 	dropPkByQueue:count 	0
attr interpolationmode  none
attr source  dropPkByQueue
attr title  "packets dropped by queue, count"
scalar scenarioPRJP1.node[99].wlan.mgmt 	dropPkByQueue:sum(packetBytes) 	0
attr interpolationmode  none
attr source  dropPkByQueue
attr title  "packets dropped by queue, sum(packetBytes)"
scalar scenarioPRJP1.node[99].wlan.mac 	"number of received packets" 	2040
scalar scenarioPRJP1.node[99].wlan.mac 	"number of collisions" 	5808
scalar scenarioPRJP1.node[99].wlan.mac 	"number of internal collisions" 	1
scalar scenarioPRJP1.node[99].wlan.mac 	"number of retry for AC 0" 	3001
scalar scenarioPRJP1.node[99].wlan.mac 	"number of retry for AC 1" 	120
scalar scenarioPRJP1.node[99].wlan.mac 	"number of retry for AC 2" 	0
scalar scenarioPRJP1.node[99].wlan.mac 	"number of retry for AC 3" 	0
scalar scenarioPRJP1.node[99].wlan.mac 	"sent and received bits" 	28172672
scalar scenarioPRJP1.node[99].wlan.mac 	"sent packet within AC 0" 	644
scalar scenarioPRJP1.node[99].wlan.mac 	"sent packet within AC 1" 	35
scalar scenarioPRJP1.node[99].wlan.mac 	"sent packet within AC 2" 	0
scalar scenarioPRJP1.node[99].wlan.mac 	"sent packet within AC 3" 	0
scalar scenarioPRJP1.node[99].wlan.mac 	"sent in TXOP " 	0
scalar scenarioPRJP1.node[99].wlan.mac 	"sentWithoutRetry AC 0" 	609
scalar scenarioPRJP1.node[99].wlan.mac 	"sentWithoutRetry AC 1" 	35
scalar scenarioPRJP1.node[99].wlan.mac 	"sentWithoutRetry AC 2" 	0
scalar scenarioPRJP1.node[99].wlan.mac 	"sentWithoutRetry AC 3" 	0
scalar scenarioPRJP1.node[99].wlan.mac 	"numGivenUp AC 0" 	488
scalar scenarioPRJP1.node[99].wlan.mac 	"numGivenUp AC 1" 	20
scalar scenarioPRJP1.node[99].wlan.mac 	"numGivenUp AC 2" 	0
scalar scenarioPRJP1.node[99].wlan.mac 	"numGivenUp AC 3" 	0
scalar scenarioPRJP1.node[99].wlan.mac 	"numDropped AC 0" 	0
scalar scenarioPRJP1.node[99].wlan.mac 	"numDropped AC 1" 	0
scalar scenarioPRJP1.node[99].wlan.mac 	"numDropped AC 2" 	0
scalar scenarioPRJP1.node[99].wlan.mac 	"numDropped AC 3" 	0
scalar scenarioPRJP1.node[99].wlan.mac 	rcvdPkFromLL:count 	49847
attr interpolationmode  none
attr source  packetReceivedFromLower
attr title  "packets received from lower layer, count"
scalar scenarioPRJP1.node[99].wlan.mac 	rcvdPkFromLL:sum(packetBytes) 	28003132
attr interpolationmode  none
attr source  packetReceivedFromLower
attr title  "packets received from lower layer, sum(packetBytes)"
scalar scenarioPRJP1.node[99].wlan.mac 	sentDownPk:count 	9451
attr interpolationmode  none
attr source  packetSentToLower
attr title  "packets sent to lower layer, count"
scalar scenarioPRJP1.node[99].wlan.mac 	sentDownPk:sum(packetBytes) 	5456912
attr interpolationmode  none
attr source  packetSentToLower
attr title  "packets sent to lower layer, sum(packetBytes)"
scalar scenarioPRJP1.node[99].wlan.mac 	rcvdPkFromHL:count 	4291
attr interpolationmode  none
attr source  packetReceivedFromUpper
attr title  "packets received from higher layer, count"
scalar scenarioPRJP1.node[99].wlan.mac 	rcvdPkFromHL:sum(packetBytes) 	3788128
attr interpolationmode  none
attr source  packetReceivedFromUpper
attr title  "packets received from higher layer, sum(packetBytes)"
scalar scenarioPRJP1.node[99].wlan.mac 	passedUpPk:count 	15992
attr interpolationmode  none
attr source  packetSentToUpper
attr title  "packets passed to higher layer, count"
scalar scenarioPRJP1.node[99].wlan.mac 	passedUpPk:sum(packetBytes) 	15767944
attr interpolationmode  none
attr source  packetSentToUpper
attr title  "packets passed to higher layer, sum(packetBytes)"
statistic scenarioPRJP1.node[99].wlan.radio 	radioChannel:histogram
field count 1
field mean 3
field stddev -nan
field sum 3
field sqrsum 9
field min 3
field max 3
attr interpolationmode  sample-hold
attr source  radioChannelChanged
attr title  "Radio channel, histogram"
bin	-INF	0
bin	2	0
bin	3	1
bin	4	0
scalar scenarioPRJP1.node[99].wlan.radio 	transmissionState:count 	37804
attr interpolationmode  sample-hold
attr source  transmissionStateChanged
attr title  "Radio transmission state, count"
scalar scenarioPRJP1.node[99].wlan.radio 	receptionState:count 	119354
attr interpolationmode  sample-hold
attr source  receptionStateChanged
attr title  "Radio reception state, count"
scalar scenarioPRJP1.node[99].wlan.radio 	radioMode:count 	18904
attr interpolationmode  sample-hold
attr source  radioModeChanged
attr title  "Radio mode, count"
statistic scenarioPRJP1.node[99].wlan.radio 	symbolErrorRate:histogram
field count 0
field mean -nan
field stddev -nan
field sum 0
field sqrsum 0
field min -nan
field max -nan
attr source  symbolErrorRate
attr title  "Symbol error rate, histogram"
bin	-INF	0
bin	-0.5	0
bin	-0.46666666666667	0
bin	-0.43333333333333	0
bin	-0.4	0
bin	-0.36666666666667	0
bin	-0.33333333333333	0
bin	-0.3	0
bin	-0.26666666666667	0
bin	-0.23333333333333	0
bin	-0.2	0
bin	-0.16666666666667	0
bin	-0.13333333333333	0
bin	-0.1	0
bin	-0.066666666666667	0
bin	-0.033333333333333	0
bin	0	0
bin	0.033333333333333	0
bin	0.066666666666667	0
bin	0.1	0
bin	0.13333333333333	0
bin	0.16666666666667	0
bin	0.2	0
bin	0.23333333333333	0
bin	0.26666666666667	0
bin	0.3	0
bin	0.33333333333333	0
bin	0.36666666666667	0
bin	0.4	0
bin	0.43333333333333	0
bin	0.46666666666667	0
bin	0.5	0
statistic scenarioPRJP1.node[99].wlan.radio 	bitErrorRate:histogram
field count 0
field mean -nan
field stddev -nan
field sum 0
field sqrsum 0
field min -nan
field max -nan
attr source  bitErrorRate
attr title  "Bit error rate, histogram"
bin	-INF	0
bin	-0.5	0
bin	-0.46666666666667	0
bin	-0.43333333333333	0
bin	-0.4	0
bin	-0.36666666666667	0
bin	-0.33333333333333	0
bin	-0.3	0
bin	-0.26666666666667	0
bin	-0.23333333333333	0
bin	-0.2	0
bin	-0.16666666666667	0
bin	-0.13333333333333	0
bin	-0.1	0
bin	-0.066666666666667	0
bin	-0.033333333333333	0
bin	0	0
bin	0.033333333333333	0
bin	0.066666666666667	0
bin	0.1	0
bin	0.13333333333333	0
bin	0.16666666666667	0
bin	0.2	0
bin	0.23333333333333	0
bin	0.26666666666667	0
bin	0.3	0
bin	0.33333333333333	0
bin	0.36666666666667	0
bin	0.4	0
bin	0.43333333333333	0
bin	0.46666666666667	0
bin	0.5	0
statistic scenarioPRJP1.node[99].wlan.radio 	packetErrorRate:histogram
field count 49847
field mean 0.10858012141984
field stddev 0.30357178533441
field sum 5412.3933124148
field sqrsum 5181.277767947
field min 0
field max 1
attr source  packetErrorRate
attr title  "Packet error rate, histogram"
bin	-INF	0
bin	-0.00024996889220608	0
bin	-0.0002166397065786	0
bin	-0.00018331052095112	0
bin	-0.00014998133532365	0
bin	-0.00011665214969617	0
bin	-8.3322964068692e-05	0
bin	-4.9993778441215e-05	0
bin	-1.6664592813738e-05	41053
bin	1.6664592813738e-05	298
bin	4.9993778441215e-05	146
bin	8.3322964068692e-05	97
bin	0.00011665214969617	74
bin	0.00014998133532365	47
bin	0.00018331052095112	41
bin	0.0002166397065786	62
bin	0.00024996889220608	38
bin	0.00028329807783355	34
bin	0.00031662726346103	22
bin	0.00034995644908851	25
bin	0.00038328563471598	28
bin	0.00041661482034346	28
bin	0.00044994400597094	28
bin	0.00048327319159841	31
bin	0.00051660237722589	31
bin	0.00054993156285337	18
bin	0.00058326074848084	16
bin	0.00061658993410832	9
bin	0.0006499191197358	8
bin	0.00068324830536327	17
bin	0.00071657749099075	14
bin	0.00074990667661823	7682
statistic scenarioPRJP1.node[99].wlan.radio 	minSNIR:histogram
field count 49847
field mean 6739.7194347594
field stddev 61399.410503707
field sum 335954794.66445
field sqrsum 1.9017805887697e+14
field min 0.00016882846841134
field max 6771544.5631495
attr source  minSNIR
attr title  "Min SNIR, histogram"
bin	-INF	0
bin	-18430.65556328	0
bin	-15972.790527487	0
bin	-13514.925491694	0
bin	-11057.0604559	0
bin	-8599.1954201073	0
bin	-6141.3303843142	0
bin	-3683.4653485211	0
bin	-1225.600312728	41929
bin	1232.2647230651	3106
bin	3690.1297588582	899
bin	6147.9947946513	498
bin	8605.8598304445	292
bin	11063.724866238	464
bin	13521.589902031	195
bin	15979.454937824	143
bin	18437.319973617	142
bin	20895.18500941	213
bin	23353.050045203	183
bin	25810.915080996	53
bin	28268.780116789	52
bin	30726.645152582	69
bin	33184.510188376	37
bin	35642.375224169	45
bin	38100.240259962	46
bin	40558.105295755	72
bin	43015.970331548	18
bin	45473.835367341	63
bin	47931.700403134	20
bin	50389.565438927	25
bin	52847.43047472	12
bin	55305.295510514	1271
scalar scenarioPRJP1.node[99].lo0.lo 	droppedPkBitError:count 	0
attr interpolationmode  none
attr source  dropPkBitError
attr title  "packets dropped/bit error, count"
scalar scenarioPRJP1.node[99].lo0.lo 	droppedPkBitError:sum(packetBytes) 	0
attr interpolationmode  none
attr source  dropPkBitError
attr title  "packets dropped/bit error, sum(packetBytes)"
scalar scenarioPRJP1.node[99].lo0.lo 	rcvdPkFromHL:count 	2
attr interpolationmode  none
attr source  packetReceivedFromUpper
attr title  "packets received from higher layer, count"
scalar scenarioPRJP1.node[99].lo0.lo 	rcvdPkFromHL:sum(packetBytes) 	112
attr interpolationmode  none
attr source  packetReceivedFromUpper
attr title  "packets received from higher layer, sum(packetBytes)"
scalar scenarioPRJP1.node[99].lo0.lo 	passedUpPk:count 	2
attr interpolationmode  none
attr source  packetSentToUpper
attr title  "packets passed to higher layer, count"
scalar scenarioPRJP1.node[99].lo0.lo 	passedUpPk:sum(packetBytes) 	112
attr interpolationmode  none
attr source  packetSentToUpper
attr title  "packets passed to higher layer, sum(packetBytes)"
