version 2
run OLSR-ETX-TRG-100n-24-20150819-17:50:16-15138
attr configname OLSR-ETX-TRG-100n
attr datetime 20150819-17:50:16
attr experiment OLSR-ETX-TRG-100n
attr inifile omnetpp.ini
attr iterationvars ""
attr iterationvars2 $repetition=24
attr measurement ""
attr network Prj_Part1_propag.scenarioPRJP1
attr processid 15138
attr repetition 24
attr replication #24
attr resultdir results
attr runnumber 24
attr seedset 24

scalar scenarioPRJP1.radioMedium.propagation 	"Arrival computation count" 	85475892
scalar scenarioPRJP1.radioMedium 	"transmission count" 	863583
scalar scenarioPRJP1.radioMedium 	"radio frame send count" 	85475849
scalar scenarioPRJP1.radioMedium 	"reception computation count" 	84835564
scalar scenarioPRJP1.radioMedium 	"interference computation count" 	230090360
scalar scenarioPRJP1.radioMedium 	"reception decision computation count" 	5620936
scalar scenarioPRJP1.radioMedium 	"listening decision computation count" 	140847786
scalar scenarioPRJP1.radioMedium 	"reception cache hit" 	89.150193545589
attr unit  %
scalar scenarioPRJP1.radioMedium 	"interference cache hit" 	50
attr unit  %
scalar scenarioPRJP1.radioMedium 	"noise cache hit" 	0
attr unit  %
scalar scenarioPRJP1.radioMedium 	"snir cache hit" 	0
attr unit  %
scalar scenarioPRJP1.radioMedium 	"reception decision cache hit" 	0
attr unit  %
scalar scenarioPRJP1.node[0].app 	"Total sent" 	2613
scalar scenarioPRJP1.node[0].app 	"Total received" 	179
scalar scenarioPRJP1.node[0].app 	"Total deleted" 	0
scalar scenarioPRJP1.node[0].app 	dropPk:count 	0
attr interpolationmode  none
attr source  dropPk
attr title  "packets dropped, count"
scalar scenarioPRJP1.node[0].app 	dropPk:sum(packetBytes) 	0
attr interpolationmode  none
attr source  dropPk
attr title  "packets dropped, sum(packetBytes)"
scalar scenarioPRJP1.node[0].app 	outOfOrderPk:count 	0
attr interpolationmode  none
attr source  outOfOrderPk
attr title  "packets received out of order, count"
scalar scenarioPRJP1.node[0].app 	outOfOrderPk:sum(packetBytes) 	0
attr interpolationmode  none
attr source  outOfOrderPk
attr title  "packets received out of order, sum(packetBytes)"
scalar scenarioPRJP1.node[0].app 	rcvdPk:count 	179
attr interpolationmode  none
attr source  rcvdPk
attr title  "packets received, count"
scalar scenarioPRJP1.node[0].app 	rcvdPk:sum(packetBytes) 	91648
attr interpolationmode  none
attr source  rcvdPk
attr title  "packets received, sum(packetBytes)"
statistic scenarioPRJP1.node[0].app 	endToEndDelay:histogram
field count 179
field mean 0.074435198695911
field stddev 0.27946951827159
field sum 13.323900566568
field sqrsum 14.894138858523
field min 0.000945048657
field max 2.079520958295
attr interpolationmode  none
attr source  messageAge(rcvdPk)
attr title  "delay, histogram"
attr unit  s
bin	-INF	0
bin	-1.03834222239	0
bin	-0.89977052547067	0
bin	-0.76119882855133	0
bin	-0.622627131632	0
bin	-0.48405543471267	0
bin	-0.34548373779333	0
bin	-0.206912040874	0
bin	-0.068340343954667	166
bin	0.070231352964667	2
bin	0.208803049884	1
bin	0.34737474680333	0
bin	0.48594644372267	1
bin	0.624518140642	1
bin	0.76308983756133	2
bin	0.90166153448067	2
bin	1.0402332314	2
bin	1.1788049283193	0
bin	1.3173766252387	0
bin	1.455948322158	0
bin	1.5945200190773	0
bin	1.7330917159967	0
bin	1.871663412916	1
bin	2.0102351098353	1
bin	2.1488068067547	0
bin	2.287378503674	0
bin	2.4259502005933	0
bin	2.5645218975127	0
bin	2.703093594432	0
bin	2.8416652913513	0
bin	2.9802369882707	0
bin	3.11880868519	0
scalar scenarioPRJP1.node[0].app 	sentPk:count 	2613
attr interpolationmode  none
attr source  sentPk
attr title  "packets sent, count"
scalar scenarioPRJP1.node[0].app 	sentPk:sum(packetBytes) 	1337856
attr interpolationmode  none
attr source  sentPk
attr title  "packets sent, sum(packetBytes)"
scalar scenarioPRJP1.node[0].udp 	droppedPkBadChecksum:count 	0
attr interpolationmode  none
attr title  "packets dropped (checksum error), count"
scalar scenarioPRJP1.node[0].udp 	droppedPkWrongPort:count 	0
attr interpolationmode  none
attr title  "packets dropped (wrong port), count"
scalar scenarioPRJP1.node[0].udp 	passedUpPk:count 	179
attr interpolationmode  none
attr title  "packets passed up, count"
scalar scenarioPRJP1.node[0].udp 	rcvdPk:count 	179
attr interpolationmode  none
attr source  rcvdPk
attr title  "packets received, count"
scalar scenarioPRJP1.node[0].udp 	rcvdPk:sum(packetBytes) 	93080
attr interpolationmode  none
attr source  rcvdPk
attr title  "packets received, sum(packetBytes)"
scalar scenarioPRJP1.node[0].udp 	sentPk:count 	2613
attr interpolationmode  none
attr source  sentPk
attr title  "packets sent, count"
scalar scenarioPRJP1.node[0].udp 	sentPk:sum(packetBytes) 	1358760
attr interpolationmode  none
attr source  sentPk
attr title  "packets sent, sum(packetBytes)"
scalar scenarioPRJP1.node[0].networkLayer.arp 	failedARPResolution:count 	14
attr title  "ARP failed resolutions, count"
scalar scenarioPRJP1.node[0].networkLayer.arp 	completedARPResolution:count 	798
attr title  "ARP completed resolutions, count"
scalar scenarioPRJP1.node[0].networkLayer.arp 	initiatedARPResolution:count 	88
attr title  "ARP initiated resolutions, count"
scalar scenarioPRJP1.node[0].networkLayer.arp 	sentReply:count 	73
attr title  "ARP replies sent, count"
scalar scenarioPRJP1.node[0].networkLayer.arp 	sentReq:count 	145
attr title  "ARP request sent, count"
scalar scenarioPRJP1.node[0].mobility 	startTime 	0.1
scalar scenarioPRJP1.node[0].mobility 	totalTime 	949.9
scalar scenarioPRJP1.node[0].mobility 	stopTime 	950
scalar scenarioPRJP1.node[0].mobility 	minSpeed 	2.4754988371997e-13
scalar scenarioPRJP1.node[0].mobility 	maxSpeed 	16.797135484191
scalar scenarioPRJP1.node[0].mobility 	totalDistance 	9926.093429718
scalar scenarioPRJP1.node[0].mobility 	totalCO2Emission 	2596.163833454
scalar scenarioPRJP1.node[0].wlan.mgmt 	dataQueueLen:max 	0
attr interpolationmode  sample-hold
attr title  "data queue length, max"
scalar scenarioPRJP1.node[0].wlan.mgmt 	dataQueueLen:timeavg 	0
attr interpolationmode  sample-hold
attr title  "data queue length, timeavg"
scalar scenarioPRJP1.node[0].wlan.mgmt 	dropPkByQueue:count 	0
attr interpolationmode  none
attr source  dropPkByQueue
attr title  "packets dropped by queue, count"
scalar scenarioPRJP1.node[0].wlan.mgmt 	dropPkByQueue:sum(packetBytes) 	0
attr interpolationmode  none
attr source  dropPkByQueue
attr title  "packets dropped by queue, sum(packetBytes)"
scalar scenarioPRJP1.node[0].wlan.mac 	"number of received packets" 	2091
scalar scenarioPRJP1.node[0].wlan.mac 	"number of collisions" 	9796
scalar scenarioPRJP1.node[0].wlan.mac 	"number of internal collisions" 	1
scalar scenarioPRJP1.node[0].wlan.mac 	"number of retry for AC 0" 	3324
scalar scenarioPRJP1.node[0].wlan.mac 	"number of retry for AC 1" 	54
scalar scenarioPRJP1.node[0].wlan.mac 	"number of retry for AC 2" 	0
scalar scenarioPRJP1.node[0].wlan.mac 	"number of retry for AC 3" 	0
scalar scenarioPRJP1.node[0].wlan.mac 	"sent and received bits" 	31406464
scalar scenarioPRJP1.node[0].wlan.mac 	"sent packet within AC 0" 	935
scalar scenarioPRJP1.node[0].wlan.mac 	"sent packet within AC 1" 	36
scalar scenarioPRJP1.node[0].wlan.mac 	"sent packet within AC 2" 	0
scalar scenarioPRJP1.node[0].wlan.mac 	"sent packet within AC 3" 	0
scalar scenarioPRJP1.node[0].wlan.mac 	"sent in TXOP " 	0
scalar scenarioPRJP1.node[0].wlan.mac 	"sentWithoutRetry AC 0" 	856
scalar scenarioPRJP1.node[0].wlan.mac 	"sentWithoutRetry AC 1" 	36
scalar scenarioPRJP1.node[0].wlan.mac 	"sentWithoutRetry AC 2" 	0
scalar scenarioPRJP1.node[0].wlan.mac 	"sentWithoutRetry AC 3" 	0
scalar scenarioPRJP1.node[0].wlan.mac 	"numGivenUp AC 0" 	525
scalar scenarioPRJP1.node[0].wlan.mac 	"numGivenUp AC 1" 	9
scalar scenarioPRJP1.node[0].wlan.mac 	"numGivenUp AC 2" 	0
scalar scenarioPRJP1.node[0].wlan.mac 	"numGivenUp AC 3" 	0
scalar scenarioPRJP1.node[0].wlan.mac 	"numDropped AC 0" 	0
scalar scenarioPRJP1.node[0].wlan.mac 	"numDropped AC 1" 	0
scalar scenarioPRJP1.node[0].wlan.mac 	"numDropped AC 2" 	0
scalar scenarioPRJP1.node[0].wlan.mac 	"numDropped AC 3" 	0
scalar scenarioPRJP1.node[0].wlan.mac 	rcvdPkFromLL:count 	69790
attr interpolationmode  none
attr source  packetReceivedFromLower
attr title  "packets received from lower layer, count"
scalar scenarioPRJP1.node[0].wlan.mac 	rcvdPkFromLL:sum(packetBytes) 	39904242
attr interpolationmode  none
attr source  packetReceivedFromLower
attr title  "packets received from lower layer, sum(packetBytes)"
scalar scenarioPRJP1.node[0].wlan.mac 	sentDownPk:count 	10355
attr interpolationmode  none
attr source  packetSentToLower
attr title  "packets sent to lower layer, count"
scalar scenarioPRJP1.node[0].wlan.mac 	sentDownPk:sum(packetBytes) 	6028334
attr interpolationmode  none
attr source  packetSentToLower
attr title  "packets sent to lower layer, sum(packetBytes)"
scalar scenarioPRJP1.node[0].wlan.mac 	rcvdPkFromHL:count 	4887
attr interpolationmode  none
attr source  packetReceivedFromUpper
attr title  "packets received from higher layer, count"
scalar scenarioPRJP1.node[0].wlan.mac 	rcvdPkFromHL:sum(packetBytes) 	4208556
attr interpolationmode  none
attr source  packetReceivedFromUpper
attr title  "packets received from higher layer, sum(packetBytes)"
scalar scenarioPRJP1.node[0].wlan.mac 	passedUpPk:count 	22060
attr interpolationmode  none
attr source  packetSentToUpper
attr title  "packets passed to higher layer, count"
scalar scenarioPRJP1.node[0].wlan.mac 	passedUpPk:sum(packetBytes) 	21717804
attr interpolationmode  none
attr source  packetSentToUpper
attr title  "packets passed to higher layer, sum(packetBytes)"
statistic scenarioPRJP1.node[0].wlan.radio 	radioChannel:histogram
field count 1
field mean 3
field stddev -nan
field sum 3
field sqrsum 9
field min 3
field max 3
attr interpolationmode  sample-hold
attr source  radioChannelChanged
attr title  "Radio channel, histogram"
bin	-INF	0
bin	2	0
bin	3	1
bin	4	0
scalar scenarioPRJP1.node[0].wlan.radio 	transmissionState:count 	41420
attr interpolationmode  sample-hold
attr source  transmissionStateChanged
attr title  "Radio transmission state, count"
scalar scenarioPRJP1.node[0].wlan.radio 	receptionState:count 	162193
attr interpolationmode  sample-hold
attr source  receptionStateChanged
attr title  "Radio reception state, count"
scalar scenarioPRJP1.node[0].wlan.radio 	radioMode:count 	20712
attr interpolationmode  sample-hold
attr source  radioModeChanged
attr title  "Radio mode, count"
statistic scenarioPRJP1.node[0].wlan.radio 	symbolErrorRate:histogram
field count 0
field mean -nan
field stddev -nan
field sum 0
field sqrsum 0
field min -nan
field max -nan
attr source  symbolErrorRate
attr title  "Symbol error rate, histogram"
bin	-INF	0
bin	-0.5	0
bin	-0.46666666666667	0
bin	-0.43333333333333	0
bin	-0.4	0
bin	-0.36666666666667	0
bin	-0.33333333333333	0
bin	-0.3	0
bin	-0.26666666666667	0
bin	-0.23333333333333	0
bin	-0.2	0
bin	-0.16666666666667	0
bin	-0.13333333333333	0
bin	-0.1	0
bin	-0.066666666666667	0
bin	-0.033333333333333	0
bin	-6.9388939039072e-18	0
bin	0.033333333333333	0
bin	0.066666666666667	0
bin	0.1	0
bin	0.13333333333333	0
bin	0.16666666666667	0
bin	0.2	0
bin	0.23333333333333	0
bin	0.26666666666667	0
bin	0.3	0
bin	0.33333333333333	0
bin	0.36666666666667	0
bin	0.4	0
bin	0.43333333333333	0
bin	0.46666666666667	0
bin	0.5	0
statistic scenarioPRJP1.node[0].wlan.radio 	bitErrorRate:histogram
field count 0
field mean -nan
field stddev -nan
field sum 0
field sqrsum 0
field min -nan
field max -nan
attr source  bitErrorRate
attr title  "Bit error rate, histogram"
bin	-INF	0
bin	-0.5	0
bin	-0.46666666666667	0
bin	-0.43333333333333	0
bin	-0.4	0
bin	-0.36666666666667	0
bin	-0.33333333333333	0
bin	-0.3	0
bin	-0.26666666666667	0
bin	-0.23333333333333	0
bin	-0.2	0
bin	-0.16666666666667	0
bin	-0.13333333333333	0
bin	-0.1	0
bin	-0.066666666666667	0
bin	-0.033333333333333	0
bin	-6.9388939039072e-18	0
bin	0.033333333333333	0
bin	0.066666666666667	0
bin	0.1	0
bin	0.13333333333333	0
bin	0.16666666666667	0
bin	0.2	0
bin	0.23333333333333	0
bin	0.26666666666667	0
bin	0.3	0
bin	0.33333333333333	0
bin	0.36666666666667	0
bin	0.4	0
bin	0.43333333333333	0
bin	0.46666666666667	0
bin	0.5	0
statistic scenarioPRJP1.node[0].wlan.radio 	packetErrorRate:histogram
field count 69790
field mean 0.13131248624147
field stddev 0.33016128182535
field sum 9164.2984147924
field sqrsum 8810.8394850686
field min 0
field max 1
attr source  packetErrorRate
attr title  "Packet error rate, histogram"
bin	-INF	0
bin	-0.027152836298136	0
bin	-0.023532458125051	0
bin	-0.019912079951966	0
bin	-0.016291701778882	0
bin	-0.012671323605797	0
bin	-0.009050945432712	0
bin	-0.0054305672596272	0
bin	-0.0018101890865424	57750
bin	0.0018101890865424	545
bin	0.0054305672596272	230
bin	0.009050945432712	174
bin	0.012671323605797	139
bin	0.016291701778882	110
bin	0.019912079951966	88
bin	0.023532458125051	76
bin	0.027152836298136	55
bin	0.030773214471221	54
bin	0.034393592644306	47
bin	0.038013970817391	48
bin	0.041634348990475	44
bin	0.04525472716356	23
bin	0.048875105336645	25
bin	0.05249548350973	45
bin	0.056115861682815	27
bin	0.059736239855899	25
bin	0.063356618028984	25
bin	0.066976996202069	22
bin	0.070597374375154	25
bin	0.074217752548239	21
bin	0.077838130721323	22
bin	0.081458508894408	10170
statistic scenarioPRJP1.node[0].wlan.radio 	minSNIR:histogram
field count 69790
field mean 4318.8309057689
field stddev 35707.680593608
field sum 301411208.91361
field sqrsum 90285402667000
field min 0.00071415329227939
field max 753239.71923443
attr source  minSNIR
attr title  "Min SNIR, histogram"
bin	-INF	0
bin	-13152.231254648	0
bin	-11398.262232226	0
bin	-9644.2932098042	0
bin	-7890.3241873823	0
bin	-6136.3551649605	0
bin	-4382.3861425386	0
bin	-2628.4171201168	0
bin	-874.44809769489	57636
bin	879.52092472698	5064
bin	2633.4899471488	1567
bin	4387.4589695707	937
bin	6141.4279919926	567
bin	7895.3970144144	458
bin	9649.3660368363	309
bin	11403.335059258	373
bin	13157.30408168	322
bin	14911.273104102	176
bin	16665.242126524	151
bin	18419.211148946	186
bin	20173.180171368	106
bin	21927.149193789	141
bin	23681.118216211	117
bin	25435.087238633	101
bin	27189.056261055	60
bin	28943.025283477	39
bin	30696.994305899	44
bin	32450.963328321	44
bin	34204.932350742	28
bin	35958.901373164	32
bin	37712.870395586	54
bin	39466.839418008	1278
scalar scenarioPRJP1.node[0].lo0.lo 	droppedPkBitError:count 	0
attr interpolationmode  none
attr source  dropPkBitError
attr title  "packets dropped/bit error, count"
scalar scenarioPRJP1.node[0].lo0.lo 	droppedPkBitError:sum(packetBytes) 	0
attr interpolationmode  none
attr source  dropPkBitError
attr title  "packets dropped/bit error, sum(packetBytes)"
scalar scenarioPRJP1.node[0].lo0.lo 	rcvdPkFromHL:count 	8
attr interpolationmode  none
attr source  packetReceivedFromUpper
attr title  "packets received from higher layer, count"
scalar scenarioPRJP1.node[0].lo0.lo 	rcvdPkFromHL:sum(packetBytes) 	448
attr interpolationmode  none
attr source  packetReceivedFromUpper
attr title  "packets received from higher layer, sum(packetBytes)"
scalar scenarioPRJP1.node[0].lo0.lo 	passedUpPk:count 	8
attr interpolationmode  none
attr source  packetSentToUpper
attr title  "packets passed to higher layer, count"
scalar scenarioPRJP1.node[0].lo0.lo 	passedUpPk:sum(packetBytes) 	448
attr interpolationmode  none
attr source  packetSentToUpper
attr title  "packets passed to higher layer, sum(packetBytes)"
scalar scenarioPRJP1.node[36].app 	"Total sent" 	2604
scalar scenarioPRJP1.node[36].app 	"Total received" 	184
scalar scenarioPRJP1.node[36].app 	"Total deleted" 	0
scalar scenarioPRJP1.node[36].app 	dropPk:count 	0
attr interpolationmode  none
attr source  dropPk
attr title  "packets dropped, count"
scalar scenarioPRJP1.node[36].app 	dropPk:sum(packetBytes) 	0
attr interpolationmode  none
attr source  dropPk
attr title  "packets dropped, sum(packetBytes)"
scalar scenarioPRJP1.node[36].app 	outOfOrderPk:count 	0
attr interpolationmode  none
attr source  outOfOrderPk
attr title  "packets received out of order, count"
scalar scenarioPRJP1.node[36].app 	outOfOrderPk:sum(packetBytes) 	0
attr interpolationmode  none
attr source  outOfOrderPk
attr title  "packets received out of order, sum(packetBytes)"
scalar scenarioPRJP1.node[36].app 	rcvdPk:count 	184
attr interpolationmode  none
attr source  rcvdPk
attr title  "packets received, count"
scalar scenarioPRJP1.node[36].app 	rcvdPk:sum(packetBytes) 	94208
attr interpolationmode  none
attr source  rcvdPk
attr title  "packets received, sum(packetBytes)"
statistic scenarioPRJP1.node[36].app 	endToEndDelay:histogram
field count 184
field mean 0.11802983113347
field stddev 0.38111237731024
field sum 21.717488928559
field sqrsum 29.143447428329
field min 0.00092368105
field max 2.054365207227
attr interpolationmode  none
attr source  messageAge(rcvdPk)
attr title  "delay, histogram"
attr unit  s
bin	-INF	0
bin	-1.01071677019	0
bin	-0.87583137669133	0
bin	-0.74094598319267	0
bin	-0.606060589694	0
bin	-0.47117519619533	0
bin	-0.33628980269667	0
bin	-0.201404409198	0
bin	-0.066519015699333	163
bin	0.068366377799333	5
bin	0.203251771298	1
bin	0.33813716479667	0
bin	0.47302255829533	0
bin	0.607907951794	0
bin	0.74279334529267	2
bin	0.87767873879133	4
bin	1.01256413229	3
bin	1.1474495257887	0
bin	1.2823349192873	1
bin	1.417220312786	1
bin	1.5521057062847	0
bin	1.6869910997833	0
bin	1.821876493282	0
bin	1.9567618867807	4
bin	2.0916472802793	0
bin	2.226532673778	0
bin	2.3614180672767	0
bin	2.4963034607753	0
bin	2.631188854274	0
bin	2.7660742477727	0
bin	2.9009596412713	0
bin	3.03584503477	0
scalar scenarioPRJP1.node[36].app 	sentPk:count 	2604
attr interpolationmode  none
attr source  sentPk
attr title  "packets sent, count"
scalar scenarioPRJP1.node[36].app 	sentPk:sum(packetBytes) 	1333248
attr interpolationmode  none
attr source  sentPk
attr title  "packets sent, sum(packetBytes)"
scalar scenarioPRJP1.node[36].udp 	droppedPkBadChecksum:count 	0
attr interpolationmode  none
attr title  "packets dropped (checksum error), count"
scalar scenarioPRJP1.node[36].udp 	droppedPkWrongPort:count 	0
attr interpolationmode  none
attr title  "packets dropped (wrong port), count"
scalar scenarioPRJP1.node[36].udp 	passedUpPk:count 	184
attr interpolationmode  none
attr title  "packets passed up, count"
scalar scenarioPRJP1.node[36].udp 	rcvdPk:count 	184
attr interpolationmode  none
attr source  rcvdPk
attr title  "packets received, count"
scalar scenarioPRJP1.node[36].udp 	rcvdPk:sum(packetBytes) 	95680
attr interpolationmode  none
attr source  rcvdPk
attr title  "packets received, sum(packetBytes)"
scalar scenarioPRJP1.node[36].udp 	sentPk:count 	2604
attr interpolationmode  none
attr source  sentPk
attr title  "packets sent, count"
scalar scenarioPRJP1.node[36].udp 	sentPk:sum(packetBytes) 	1354080
attr interpolationmode  none
attr source  sentPk
attr title  "packets sent, sum(packetBytes)"
scalar scenarioPRJP1.node[36].networkLayer.arp 	failedARPResolution:count 	10
attr title  "ARP failed resolutions, count"
scalar scenarioPRJP1.node[36].networkLayer.arp 	completedARPResolution:count 	668
attr title  "ARP completed resolutions, count"
scalar scenarioPRJP1.node[36].networkLayer.arp 	initiatedARPResolution:count 	70
attr title  "ARP initiated resolutions, count"
scalar scenarioPRJP1.node[36].networkLayer.arp 	sentReply:count 	64
attr title  "ARP replies sent, count"
scalar scenarioPRJP1.node[36].networkLayer.arp 	sentReq:count 	109
attr title  "ARP request sent, count"
scalar scenarioPRJP1.node[36].mobility 	startTime 	2.6
scalar scenarioPRJP1.node[36].mobility 	totalTime 	947.4
scalar scenarioPRJP1.node[36].mobility 	stopTime 	950
scalar scenarioPRJP1.node[36].mobility 	minSpeed 	2.4755153676389e-13
scalar scenarioPRJP1.node[36].mobility 	maxSpeed 	16.062656106427
scalar scenarioPRJP1.node[36].mobility 	totalDistance 	8079.3828006646
scalar scenarioPRJP1.node[36].mobility 	totalCO2Emission 	2196.3048500048
scalar scenarioPRJP1.node[36].wlan.mgmt 	dataQueueLen:max 	0
attr interpolationmode  sample-hold
attr title  "data queue length, max"
scalar scenarioPRJP1.node[36].wlan.mgmt 	dataQueueLen:timeavg 	0
attr interpolationmode  sample-hold
attr title  "data queue length, timeavg"
scalar scenarioPRJP1.node[36].wlan.mgmt 	dropPkByQueue:count 	0
attr interpolationmode  none
attr source  dropPkByQueue
attr title  "packets dropped by queue, count"
scalar scenarioPRJP1.node[36].wlan.mgmt 	dropPkByQueue:sum(packetBytes) 	0
attr interpolationmode  none
attr source  dropPkByQueue
attr title  "packets dropped by queue, sum(packetBytes)"
scalar scenarioPRJP1.node[36].wlan.mac 	"number of received packets" 	1775
scalar scenarioPRJP1.node[36].wlan.mac 	"number of collisions" 	7312
scalar scenarioPRJP1.node[36].wlan.mac 	"number of internal collisions" 	0
scalar scenarioPRJP1.node[36].wlan.mac 	"number of retry for AC 0" 	2687
scalar scenarioPRJP1.node[36].wlan.mac 	"number of retry for AC 1" 	36
scalar scenarioPRJP1.node[36].wlan.mac 	"number of retry for AC 2" 	0
scalar scenarioPRJP1.node[36].wlan.mac 	"number of retry for AC 3" 	0
scalar scenarioPRJP1.node[36].wlan.mac 	"sent and received bits" 	28368544
scalar scenarioPRJP1.node[36].wlan.mac 	"sent packet within AC 0" 	871
scalar scenarioPRJP1.node[36].wlan.mac 	"sent packet within AC 1" 	48
scalar scenarioPRJP1.node[36].wlan.mac 	"sent packet within AC 2" 	0
scalar scenarioPRJP1.node[36].wlan.mac 	"sent packet within AC 3" 	0
scalar scenarioPRJP1.node[36].wlan.mac 	"sent in TXOP " 	0
scalar scenarioPRJP1.node[36].wlan.mac 	"sentWithoutRetry AC 0" 	794
scalar scenarioPRJP1.node[36].wlan.mac 	"sentWithoutRetry AC 1" 	48
scalar scenarioPRJP1.node[36].wlan.mac 	"sentWithoutRetry AC 2" 	0
scalar scenarioPRJP1.node[36].wlan.mac 	"sentWithoutRetry AC 3" 	0
scalar scenarioPRJP1.node[36].wlan.mac 	"numGivenUp AC 0" 	418
scalar scenarioPRJP1.node[36].wlan.mac 	"numGivenUp AC 1" 	6
scalar scenarioPRJP1.node[36].wlan.mac 	"numGivenUp AC 2" 	0
scalar scenarioPRJP1.node[36].wlan.mac 	"numGivenUp AC 3" 	0
scalar scenarioPRJP1.node[36].wlan.mac 	"numDropped AC 0" 	0
scalar scenarioPRJP1.node[36].wlan.mac 	"numDropped AC 1" 	0
scalar scenarioPRJP1.node[36].wlan.mac 	"numDropped AC 2" 	0
scalar scenarioPRJP1.node[36].wlan.mac 	"numDropped AC 3" 	0
scalar scenarioPRJP1.node[36].wlan.mac 	rcvdPkFromLL:count 	62839
attr interpolationmode  none
attr source  packetReceivedFromLower
attr title  "packets received from lower layer, count"
scalar scenarioPRJP1.node[36].wlan.mac 	rcvdPkFromLL:sum(packetBytes) 	35070730
attr interpolationmode  none
attr source  packetReceivedFromLower
attr title  "packets received from lower layer, sum(packetBytes)"
scalar scenarioPRJP1.node[36].wlan.mac 	sentDownPk:count 	8850
attr interpolationmode  none
attr source  packetSentToLower
attr title  "packets sent to lower layer, count"
scalar scenarioPRJP1.node[36].wlan.mac 	sentDownPk:sum(packetBytes) 	5227070
attr interpolationmode  none
attr source  packetSentToLower
attr title  "packets sent to lower layer, sum(packetBytes)"
scalar scenarioPRJP1.node[36].wlan.mac 	rcvdPkFromHL:count 	4352
attr interpolationmode  none
attr source  packetReceivedFromUpper
attr title  "packets received from higher layer, count"
scalar scenarioPRJP1.node[36].wlan.mac 	rcvdPkFromHL:sum(packetBytes) 	3768956
attr interpolationmode  none
attr source  packetReceivedFromUpper
attr title  "packets received from higher layer, sum(packetBytes)"
scalar scenarioPRJP1.node[36].wlan.mac 	passedUpPk:count 	19461
attr interpolationmode  none
attr source  packetSentToUpper
attr title  "packets passed to higher layer, count"
scalar scenarioPRJP1.node[36].wlan.mac 	passedUpPk:sum(packetBytes) 	19142384
attr interpolationmode  none
attr source  packetSentToUpper
attr title  "packets passed to higher layer, sum(packetBytes)"
statistic scenarioPRJP1.node[36].wlan.radio 	radioChannel:histogram
field count 1
field mean 3
field stddev -nan
field sum 3
field sqrsum 9
field min 3
field max 3
attr interpolationmode  sample-hold
attr source  radioChannelChanged
attr title  "Radio channel, histogram"
bin	-INF	0
bin	2	0
bin	3	1
bin	4	0
scalar scenarioPRJP1.node[36].wlan.radio 	transmissionState:count 	35400
attr interpolationmode  sample-hold
attr source  transmissionStateChanged
attr title  "Radio transmission state, count"
scalar scenarioPRJP1.node[36].wlan.radio 	receptionState:count 	144417
attr interpolationmode  sample-hold
attr source  receptionStateChanged
attr title  "Radio reception state, count"
scalar scenarioPRJP1.node[36].wlan.radio 	radioMode:count 	17702
attr interpolationmode  sample-hold
attr source  radioModeChanged
attr title  "Radio mode, count"
statistic scenarioPRJP1.node[36].wlan.radio 	symbolErrorRate:histogram
field count 0
field mean -nan
field stddev -nan
field sum 0
field sqrsum 0
field min -nan
field max -nan
attr source  symbolErrorRate
attr title  "Symbol error rate, histogram"
bin	-INF	0
bin	-0.5	0
bin	-0.46666666666667	0
bin	-0.43333333333333	0
bin	-0.4	0
bin	-0.36666666666667	0
bin	-0.33333333333333	0
bin	-0.3	0
bin	-0.26666666666667	0
bin	-0.23333333333333	0
bin	-0.2	0
bin	-0.16666666666667	0
bin	-0.13333333333333	0
bin	-0.1	0
bin	-0.066666666666667	0
bin	-0.033333333333333	0
bin	-6.9388939039072e-18	0
bin	0.033333333333333	0
bin	0.066666666666667	0
bin	0.1	0
bin	0.13333333333333	0
bin	0.16666666666667	0
bin	0.2	0
bin	0.23333333333333	0
bin	0.26666666666667	0
bin	0.3	0
bin	0.33333333333333	0
bin	0.36666666666667	0
bin	0.4	0
bin	0.43333333333333	0
bin	0.46666666666667	0
bin	0.5	0
statistic scenarioPRJP1.node[36].wlan.radio 	bitErrorRate:histogram
field count 0
field mean -nan
field stddev -nan
field sum 0
field sqrsum 0
field min -nan
field max -nan
attr source  bitErrorRate
attr title  "Bit error rate, histogram"
bin	-INF	0
bin	-0.5	0
bin	-0.46666666666667	0
bin	-0.43333333333333	0
bin	-0.4	0
bin	-0.36666666666667	0
bin	-0.33333333333333	0
bin	-0.3	0
bin	-0.26666666666667	0
bin	-0.23333333333333	0
bin	-0.2	0
bin	-0.16666666666667	0
bin	-0.13333333333333	0
bin	-0.1	0
bin	-0.066666666666667	0
bin	-0.033333333333333	0
bin	-6.9388939039072e-18	0
bin	0.033333333333333	0
bin	0.066666666666667	0
bin	0.1	0
bin	0.13333333333333	0
bin	0.16666666666667	0
bin	0.2	0
bin	0.23333333333333	0
bin	0.26666666666667	0
bin	0.3	0
bin	0.33333333333333	0
bin	0.36666666666667	0
bin	0.4	0
bin	0.43333333333333	0
bin	0.46666666666667	0
bin	0.5	0
statistic scenarioPRJP1.node[36].wlan.radio 	packetErrorRate:histogram
field count 62839
field mean 0.10851387619544
field stddev 0.30295566741798
field sum 6818.9034662453
field sqrsum 6507.3515349272
field min 0
field max 1
attr source  packetErrorRate
attr title  "Packet error rate, histogram"
bin	-INF	0
bin	-0.5	0
bin	-0.46666666666667	0
bin	-0.43333333333333	0
bin	-0.4	0
bin	-0.36666666666667	0
bin	-0.33333333333333	0
bin	-0.3	0
bin	-0.26666666666667	0
bin	-0.23333333333333	0
bin	-0.2	0
bin	-0.16666666666667	0
bin	-0.13333333333333	0
bin	-0.1	0
bin	-0.066666666666667	0
bin	-0.033333333333333	0
bin	-6.9388939039072e-18	54749
bin	0.033333333333333	329
bin	0.066666666666667	182
bin	0.1	149
bin	0.13333333333333	96
bin	0.16666666666667	101
bin	0.2	80
bin	0.23333333333333	72
bin	0.26666666666667	71
bin	0.3	54
bin	0.33333333333333	48
bin	0.36666666666667	47
bin	0.4	47
bin	0.43333333333333	51
bin	0.46666666666667	42
bin	0.5	6721
statistic scenarioPRJP1.node[36].wlan.radio 	minSNIR:histogram
field count 62839
field mean 6763.3792929453
field stddev 50860.462829847
field sum 425003991.38939
field sqrsum 1.6542296454652e+14
field min 0.00035583091043209
field max 779757.40227834
attr source  minSNIR
attr title  "Min SNIR, histogram"
bin	-INF	0
bin	-12835.396735544	0
bin	-11122.518288613	0
bin	-9409.6398416824	0
bin	-7696.7613947519	0
bin	-5983.8829478213	0
bin	-4271.0045008908	0
bin	-2558.1260539602	0
bin	-845.24760702969	51949
bin	867.63083990086	3647
bin	2580.5092868314	1399
bin	4293.387733762	789
bin	6006.2661806925	608
bin	7719.1446276231	369
bin	9432.0230745536	310
bin	11144.901521484	321
bin	12857.779968415	251
bin	14570.658415345	249
bin	16283.536862276	219
bin	17996.415309206	146
bin	19709.293756137	88
bin	21422.172203067	156
bin	23135.050649998	161
bin	24847.929096929	58
bin	26560.807543859	38
bin	28273.68599079	32
bin	29986.56443772	124
bin	31699.442884651	74
bin	33412.321331581	24
bin	35125.199778512	19
bin	36838.078225442	25
bin	38550.956672373	1783
scalar scenarioPRJP1.node[36].lo0.lo 	droppedPkBitError:count 	0
attr interpolationmode  none
attr source  dropPkBitError
attr title  "packets dropped/bit error, count"
scalar scenarioPRJP1.node[36].lo0.lo 	droppedPkBitError:sum(packetBytes) 	0
attr interpolationmode  none
attr source  dropPkBitError
attr title  "packets dropped/bit error, sum(packetBytes)"
scalar scenarioPRJP1.node[36].lo0.lo 	rcvdPkFromHL:count 	11
attr interpolationmode  none
attr source  packetReceivedFromUpper
attr title  "packets received from higher layer, count"
scalar scenarioPRJP1.node[36].lo0.lo 	rcvdPkFromHL:sum(packetBytes) 	616
attr interpolationmode  none
attr source  packetReceivedFromUpper
attr title  "packets received from higher layer, sum(packetBytes)"
scalar scenarioPRJP1.node[36].lo0.lo 	passedUpPk:count 	11
attr interpolationmode  none
attr source  packetSentToUpper
attr title  "packets passed to higher layer, count"
scalar scenarioPRJP1.node[36].lo0.lo 	passedUpPk:sum(packetBytes) 	616
attr interpolationmode  none
attr source  packetSentToUpper
attr title  "packets passed to higher layer, sum(packetBytes)"
scalar scenarioPRJP1.node[54].app 	"Total sent" 	2614
scalar scenarioPRJP1.node[54].app 	"Total received" 	173
scalar scenarioPRJP1.node[54].app 	"Total deleted" 	0
scalar scenarioPRJP1.node[54].app 	dropPk:count 	0
attr interpolationmode  none
attr source  dropPk
attr title  "packets dropped, count"
scalar scenarioPRJP1.node[54].app 	dropPk:sum(packetBytes) 	0
attr interpolationmode  none
attr source  dropPk
attr title  "packets dropped, sum(packetBytes)"
scalar scenarioPRJP1.node[54].app 	outOfOrderPk:count 	0
attr interpolationmode  none
attr source  outOfOrderPk
attr title  "packets received out of order, count"
scalar scenarioPRJP1.node[54].app 	outOfOrderPk:sum(packetBytes) 	0
attr interpolationmode  none
attr source  outOfOrderPk
attr title  "packets received out of order, sum(packetBytes)"
scalar scenarioPRJP1.node[54].app 	rcvdPk:count 	173
attr interpolationmode  none
attr source  rcvdPk
attr title  "packets received, count"
scalar scenarioPRJP1.node[54].app 	rcvdPk:sum(packetBytes) 	88576
attr interpolationmode  none
attr source  rcvdPk
attr title  "packets received, sum(packetBytes)"
statistic scenarioPRJP1.node[54].app 	endToEndDelay:histogram
field count 173
field mean 0.062731062053555
field stddev 0.26225284731301
field sum 10.852473735265
field sqrsum 12.510354822212
field min 0.000945033719
field max 2.048976886331
attr interpolationmode  none
attr source  messageAge(rcvdPk)
attr title  "delay, histogram"
attr unit  s
bin	-INF	0
bin	-1.0230705873925	0
bin	-0.8865351441159	0
bin	-0.7499997008393	0
bin	-0.6134642575627	0
bin	-0.4769288142861	0
bin	-0.3403933710095	0
bin	-0.2038579277329	0
bin	-0.0673224844563	162
bin	0.0692129588203	2
bin	0.2057484020969	1
bin	0.3422838453735	0
bin	0.4788192886501	1
bin	0.6153547319267	0
bin	0.7518901752033	1
bin	0.8884256184799	3
bin	1.0249610617565	1
bin	1.1614965050331	0
bin	1.2980319483097	0
bin	1.4345673915863	0
bin	1.5711028348629	0
bin	1.7076382781395	1
bin	1.8441737214161	0
bin	1.9807091646927	1
bin	2.1172446079693	0
bin	2.2537800512459	0
bin	2.3903154945225	0
bin	2.5268509377991	0
bin	2.6633863810757	0
bin	2.7999218243523	0
bin	2.9364572676289	0
bin	3.0729927109055	0
scalar scenarioPRJP1.node[54].app 	sentPk:count 	2614
attr interpolationmode  none
attr source  sentPk
attr title  "packets sent, count"
scalar scenarioPRJP1.node[54].app 	sentPk:sum(packetBytes) 	1338368
attr interpolationmode  none
attr source  sentPk
attr title  "packets sent, sum(packetBytes)"
scalar scenarioPRJP1.node[54].udp 	droppedPkBadChecksum:count 	0
attr interpolationmode  none
attr title  "packets dropped (checksum error), count"
scalar scenarioPRJP1.node[54].udp 	droppedPkWrongPort:count 	0
attr interpolationmode  none
attr title  "packets dropped (wrong port), count"
scalar scenarioPRJP1.node[54].udp 	passedUpPk:count 	173
attr interpolationmode  none
attr title  "packets passed up, count"
scalar scenarioPRJP1.node[54].udp 	rcvdPk:count 	173
attr interpolationmode  none
attr source  rcvdPk
attr title  "packets received, count"
scalar scenarioPRJP1.node[54].udp 	rcvdPk:sum(packetBytes) 	89960
attr interpolationmode  none
attr source  rcvdPk
attr title  "packets received, sum(packetBytes)"
scalar scenarioPRJP1.node[54].udp 	sentPk:count 	2614
attr interpolationmode  none
attr source  sentPk
attr title  "packets sent, count"
scalar scenarioPRJP1.node[54].udp 	sentPk:sum(packetBytes) 	1359280
attr interpolationmode  none
attr source  sentPk
attr title  "packets sent, sum(packetBytes)"
scalar scenarioPRJP1.node[54].networkLayer.arp 	failedARPResolution:count 	6
attr title  "ARP failed resolutions, count"
scalar scenarioPRJP1.node[54].networkLayer.arp 	completedARPResolution:count 	588
attr title  "ARP completed resolutions, count"
scalar scenarioPRJP1.node[54].networkLayer.arp 	initiatedARPResolution:count 	60
attr title  "ARP initiated resolutions, count"
scalar scenarioPRJP1.node[54].networkLayer.arp 	sentReply:count 	64
attr title  "ARP replies sent, count"
scalar scenarioPRJP1.node[54].networkLayer.arp 	sentReq:count 	86
attr title  "ARP request sent, count"
scalar scenarioPRJP1.node[54].mobility 	startTime 	5
scalar scenarioPRJP1.node[54].mobility 	totalTime 	945
scalar scenarioPRJP1.node[54].mobility 	stopTime 	950
scalar scenarioPRJP1.node[54].mobility 	minSpeed 	2.4757724762261e-13
scalar scenarioPRJP1.node[54].mobility 	maxSpeed 	18.230038693249
scalar scenarioPRJP1.node[54].mobility 	totalDistance 	9937.2346749354
scalar scenarioPRJP1.node[54].mobility 	totalCO2Emission 	2622.7841312182
scalar scenarioPRJP1.node[54].wlan.mgmt 	dataQueueLen:max 	1
attr interpolationmode  sample-hold
attr title  "data queue length, max"
scalar scenarioPRJP1.node[54].wlan.mgmt 	dataQueueLen:timeavg 	0
attr interpolationmode  sample-hold
attr title  "data queue length, timeavg"
scalar scenarioPRJP1.node[54].wlan.mgmt 	dropPkByQueue:count 	0
attr interpolationmode  none
attr source  dropPkByQueue
attr title  "packets dropped by queue, count"
scalar scenarioPRJP1.node[54].wlan.mgmt 	dropPkByQueue:sum(packetBytes) 	0
attr interpolationmode  none
attr source  dropPkByQueue
attr title  "packets dropped by queue, sum(packetBytes)"
scalar scenarioPRJP1.node[54].wlan.mac 	"number of received packets" 	2061
scalar scenarioPRJP1.node[54].wlan.mac 	"number of collisions" 	6850
scalar scenarioPRJP1.node[54].wlan.mac 	"number of internal collisions" 	1
scalar scenarioPRJP1.node[54].wlan.mac 	"number of retry for AC 0" 	2539
scalar scenarioPRJP1.node[54].wlan.mac 	"number of retry for AC 1" 	61
scalar scenarioPRJP1.node[54].wlan.mac 	"number of retry for AC 2" 	0
scalar scenarioPRJP1.node[54].wlan.mac 	"number of retry for AC 3" 	0
scalar scenarioPRJP1.node[54].wlan.mac 	"sent and received bits" 	29234080
scalar scenarioPRJP1.node[54].wlan.mac 	"sent packet within AC 0" 	1137
scalar scenarioPRJP1.node[54].wlan.mac 	"sent packet within AC 1" 	54
scalar scenarioPRJP1.node[54].wlan.mac 	"sent packet within AC 2" 	0
scalar scenarioPRJP1.node[54].wlan.mac 	"sent packet within AC 3" 	0
scalar scenarioPRJP1.node[54].wlan.mac 	"sent in TXOP " 	0
scalar scenarioPRJP1.node[54].wlan.mac 	"sentWithoutRetry AC 0" 	1083
scalar scenarioPRJP1.node[54].wlan.mac 	"sentWithoutRetry AC 1" 	53
scalar scenarioPRJP1.node[54].wlan.mac 	"sentWithoutRetry AC 2" 	0
scalar scenarioPRJP1.node[54].wlan.mac 	"sentWithoutRetry AC 3" 	0
scalar scenarioPRJP1.node[54].wlan.mac 	"numGivenUp AC 0" 	407
scalar scenarioPRJP1.node[54].wlan.mac 	"numGivenUp AC 1" 	10
scalar scenarioPRJP1.node[54].wlan.mac 	"numGivenUp AC 2" 	0
scalar scenarioPRJP1.node[54].wlan.mac 	"numGivenUp AC 3" 	0
scalar scenarioPRJP1.node[54].wlan.mac 	"numDropped AC 0" 	0
scalar scenarioPRJP1.node[54].wlan.mac 	"numDropped AC 1" 	0
scalar scenarioPRJP1.node[54].wlan.mac 	"numDropped AC 2" 	0
scalar scenarioPRJP1.node[54].wlan.mac 	"numDropped AC 3" 	0
scalar scenarioPRJP1.node[54].wlan.mac 	rcvdPkFromLL:count 	56669
attr interpolationmode  none
attr source  packetReceivedFromLower
attr title  "packets received from lower layer, count"
scalar scenarioPRJP1.node[54].wlan.mac 	rcvdPkFromLL:sum(packetBytes) 	32398604
attr interpolationmode  none
attr source  packetReceivedFromLower
attr title  "packets received from lower layer, sum(packetBytes)"
scalar scenarioPRJP1.node[54].wlan.mac 	sentDownPk:count 	9217
attr interpolationmode  none
attr source  packetSentToLower
attr title  "packets sent to lower layer, count"
scalar scenarioPRJP1.node[54].wlan.mac 	sentDownPk:sum(packetBytes) 	5294830
attr interpolationmode  none
attr source  packetSentToLower
attr title  "packets sent to lower layer, sum(packetBytes)"
scalar scenarioPRJP1.node[54].wlan.mac 	rcvdPkFromHL:count 	4558
attr interpolationmode  none
attr source  packetReceivedFromUpper
attr title  "packets received from higher layer, count"
scalar scenarioPRJP1.node[54].wlan.mac 	rcvdPkFromHL:sum(packetBytes) 	3877388
attr interpolationmode  none
attr source  packetReceivedFromUpper
attr title  "packets received from higher layer, sum(packetBytes)"
scalar scenarioPRJP1.node[54].wlan.mac 	passedUpPk:count 	18902
attr interpolationmode  none
attr source  packetSentToUpper
attr title  "packets passed to higher layer, count"
scalar scenarioPRJP1.node[54].wlan.mac 	passedUpPk:sum(packetBytes) 	18543056
attr interpolationmode  none
attr source  packetSentToUpper
attr title  "packets passed to higher layer, sum(packetBytes)"
statistic scenarioPRJP1.node[54].wlan.radio 	radioChannel:histogram
field count 1
field mean 3
field stddev -nan
field sum 3
field sqrsum 9
field min 3
field max 3
attr interpolationmode  sample-hold
attr source  radioChannelChanged
attr title  "Radio channel, histogram"
bin	-INF	0
bin	2	0
bin	3	1
bin	4	0
scalar scenarioPRJP1.node[54].wlan.radio 	transmissionState:count 	36868
attr interpolationmode  sample-hold
attr source  transmissionStateChanged
attr title  "Radio transmission state, count"
scalar scenarioPRJP1.node[54].wlan.radio 	receptionState:count 	132983
attr interpolationmode  sample-hold
attr source  receptionStateChanged
attr title  "Radio reception state, count"
scalar scenarioPRJP1.node[54].wlan.radio 	radioMode:count 	18436
attr interpolationmode  sample-hold
attr source  radioModeChanged
attr title  "Radio mode, count"
statistic scenarioPRJP1.node[54].wlan.radio 	symbolErrorRate:histogram
field count 0
field mean -nan
field stddev -nan
field sum 0
field sqrsum 0
field min -nan
field max -nan
attr source  symbolErrorRate
attr title  "Symbol error rate, histogram"
bin	-INF	0
bin	-0.5	0
bin	-0.46666666666667	0
bin	-0.43333333333333	0
bin	-0.4	0
bin	-0.36666666666667	0
bin	-0.33333333333333	0
bin	-0.3	0
bin	-0.26666666666667	0
bin	-0.23333333333333	0
bin	-0.2	0
bin	-0.16666666666667	0
bin	-0.13333333333333	0
bin	-0.1	0
bin	-0.066666666666667	0
bin	-0.033333333333333	0
bin	-6.9388939039072e-18	0
bin	0.033333333333333	0
bin	0.066666666666667	0
bin	0.1	0
bin	0.13333333333333	0
bin	0.16666666666667	0
bin	0.2	0
bin	0.23333333333333	0
bin	0.26666666666667	0
bin	0.3	0
bin	0.33333333333333	0
bin	0.36666666666667	0
bin	0.4	0
bin	0.43333333333333	0
bin	0.46666666666667	0
bin	0.5	0
statistic scenarioPRJP1.node[54].wlan.radio 	bitErrorRate:histogram
field count 0
field mean -nan
field stddev -nan
field sum 0
field sqrsum 0
field min -nan
field max -nan
attr source  bitErrorRate
attr title  "Bit error rate, histogram"
bin	-INF	0
bin	-0.5	0
bin	-0.46666666666667	0
bin	-0.43333333333333	0
bin	-0.4	0
bin	-0.36666666666667	0
bin	-0.33333333333333	0
bin	-0.3	0
bin	-0.26666666666667	0
bin	-0.23333333333333	0
bin	-0.2	0
bin	-0.16666666666667	0
bin	-0.13333333333333	0
bin	-0.1	0
bin	-0.066666666666667	0
bin	-0.033333333333333	0
bin	-6.9388939039072e-18	0
bin	0.033333333333333	0
bin	0.066666666666667	0
bin	0.1	0
bin	0.13333333333333	0
bin	0.16666666666667	0
bin	0.2	0
bin	0.23333333333333	0
bin	0.26666666666667	0
bin	0.3	0
bin	0.33333333333333	0
bin	0.36666666666667	0
bin	0.4	0
bin	0.43333333333333	0
bin	0.46666666666667	0
bin	0.5	0
statistic scenarioPRJP1.node[54].wlan.radio 	packetErrorRate:histogram
field count 56669
field mean 0.11272797885012
field stddev 0.30898332812355
field sum 6388.1818334573
field sqrsum 6130.2602875126
field min 0
field max 1
attr source  packetErrorRate
attr title  "Packet error rate, histogram"
bin	-INF	0
bin	-0.5	0
bin	-0.46666666666667	0
bin	-0.43333333333333	0
bin	-0.4	0
bin	-0.36666666666667	0
bin	-0.33333333333333	0
bin	-0.3	0
bin	-0.26666666666667	0
bin	-0.23333333333333	0
bin	-0.2	0
bin	-0.16666666666667	0
bin	-0.13333333333333	0
bin	-0.1	0
bin	-0.066666666666667	0
bin	-0.033333333333333	0
bin	-6.9388939039072e-18	49222
bin	0.033333333333333	253
bin	0.066666666666667	166
bin	0.1	122
bin	0.13333333333333	96
bin	0.16666666666667	76
bin	0.2	74
bin	0.23333333333333	54
bin	0.26666666666667	54
bin	0.3	51
bin	0.33333333333333	36
bin	0.36666666666667	39
bin	0.4	39
bin	0.43333333333333	44
bin	0.46666666666667	37
bin	0.5	6306
statistic scenarioPRJP1.node[54].wlan.radio 	minSNIR:histogram
field count 56669
field mean 4839.9284925599
field stddev 37554.369821927
field sum 274273907.74488
field sqrsum 81248085796035
field min 0.0007023563480085
field max 2541190.5233833
attr source  minSNIR
attr title  "Min SNIR, histogram"
bin	-INF	0
bin	-13805.524602732	0
bin	-11963.361443192	0
bin	-10121.198283653	0
bin	-8279.0351241142	0
bin	-6436.871964575	0
bin	-4594.7088050359	0
bin	-2752.5456454967	0
bin	-910.38248595761	45234
bin	931.78067358152	4600
bin	2773.9438331207	1573
bin	4616.1069926598	750
bin	6458.2701521989	549
bin	8300.4333117381	462
bin	10142.596471277	351
bin	11984.759630816	280
bin	13826.922790355	325
bin	15669.085949895	236
bin	17511.249109434	151
bin	19353.412268973	107
bin	21195.575428512	161
bin	23037.738588051	82
bin	24879.90174759	84
bin	26722.064907129	79
bin	28564.228066669	70
bin	30406.391226208	72
bin	32248.554385747	65
bin	34090.717545286	67
bin	35932.880704825	49
bin	37775.043864364	33
bin	39617.207023903	38
bin	41459.370183442	1251
scalar scenarioPRJP1.node[54].lo0.lo 	droppedPkBitError:count 	0
attr interpolationmode  none
attr source  dropPkBitError
attr title  "packets dropped/bit error, count"
scalar scenarioPRJP1.node[54].lo0.lo 	droppedPkBitError:sum(packetBytes) 	0
attr interpolationmode  none
attr source  dropPkBitError
attr title  "packets dropped/bit error, sum(packetBytes)"
scalar scenarioPRJP1.node[54].lo0.lo 	rcvdPkFromHL:count 	12
attr interpolationmode  none
attr source  packetReceivedFromUpper
attr title  "packets received from higher layer, count"
scalar scenarioPRJP1.node[54].lo0.lo 	rcvdPkFromHL:sum(packetBytes) 	672
attr interpolationmode  none
attr source  packetReceivedFromUpper
attr title  "packets received from higher layer, sum(packetBytes)"
scalar scenarioPRJP1.node[54].lo0.lo 	passedUpPk:count 	12
attr interpolationmode  none
attr source  packetSentToUpper
attr title  "packets passed to higher layer, count"
scalar scenarioPRJP1.node[54].lo0.lo 	passedUpPk:sum(packetBytes) 	672
attr interpolationmode  none
attr source  packetSentToUpper
attr title  "packets passed to higher layer, sum(packetBytes)"
scalar scenarioPRJP1.node[73].app 	"Total sent" 	2607
scalar scenarioPRJP1.node[73].app 	"Total received" 	123
scalar scenarioPRJP1.node[73].app 	"Total deleted" 	0
scalar scenarioPRJP1.node[73].app 	dropPk:count 	0
attr interpolationmode  none
attr source  dropPk
attr title  "packets dropped, count"
scalar scenarioPRJP1.node[73].app 	dropPk:sum(packetBytes) 	0
attr interpolationmode  none
attr source  dropPk
attr title  "packets dropped, sum(packetBytes)"
scalar scenarioPRJP1.node[73].app 	outOfOrderPk:count 	0
attr interpolationmode  none
attr source  outOfOrderPk
attr title  "packets received out of order, count"
scalar scenarioPRJP1.node[73].app 	outOfOrderPk:sum(packetBytes) 	0
attr interpolationmode  none
attr source  outOfOrderPk
attr title  "packets received out of order, sum(packetBytes)"
scalar scenarioPRJP1.node[73].app 	rcvdPk:count 	123
attr interpolationmode  none
attr source  rcvdPk
attr title  "packets received, count"
scalar scenarioPRJP1.node[73].app 	rcvdPk:sum(packetBytes) 	62976
attr interpolationmode  none
attr source  rcvdPk
attr title  "packets received, sum(packetBytes)"
statistic scenarioPRJP1.node[73].app 	endToEndDelay:histogram
field count 123
field mean 0.062709682737033
field stddev 0.24321446857384
field sum 7.713290976655
field sqrsum 7.7003979122903
field min 0.00094504858
field max 1.787466953348
attr interpolationmode  none
attr source  messageAge(rcvdPk)
attr title  "delay, histogram"
attr unit  s
bin	-INF	0
bin	-0.892315903804	0
bin	-0.77321444348613	0
bin	-0.65411298316827	0
bin	-0.5350115228504	0
bin	-0.41591006253253	0
bin	-0.29680860221467	0
bin	-0.1777071418968	0
bin	-0.058605681578933	113
bin	0.060495778738933	4
bin	0.1795972390568	0
bin	0.29869869937467	0
bin	0.41780015969253	1
bin	0.5369016200104	0
bin	0.65600308032827	0
bin	0.77510454064613	0
bin	0.894206000964	1
bin	1.0133074612819	3
bin	1.1324089215997	0
bin	1.2515103819176	0
bin	1.3706118422355	0
bin	1.4897133025533	0
bin	1.6088147628712	0
bin	1.7279162231891	1
bin	1.8470176835069	0
bin	1.9661191438248	0
bin	2.0852206041427	0
bin	2.2043220644605	0
bin	2.3234235247784	0
bin	2.4425249850963	0
bin	2.5616264454141	0
bin	2.680727905732	0
scalar scenarioPRJP1.node[73].app 	sentPk:count 	2607
attr interpolationmode  none
attr source  sentPk
attr title  "packets sent, count"
scalar scenarioPRJP1.node[73].app 	sentPk:sum(packetBytes) 	1334784
attr interpolationmode  none
attr source  sentPk
attr title  "packets sent, sum(packetBytes)"
scalar scenarioPRJP1.node[73].udp 	droppedPkBadChecksum:count 	0
attr interpolationmode  none
attr title  "packets dropped (checksum error), count"
scalar scenarioPRJP1.node[73].udp 	droppedPkWrongPort:count 	0
attr interpolationmode  none
attr title  "packets dropped (wrong port), count"
scalar scenarioPRJP1.node[73].udp 	passedUpPk:count 	123
attr interpolationmode  none
attr title  "packets passed up, count"
scalar scenarioPRJP1.node[73].udp 	rcvdPk:count 	123
attr interpolationmode  none
attr source  rcvdPk
attr title  "packets received, count"
scalar scenarioPRJP1.node[73].udp 	rcvdPk:sum(packetBytes) 	63960
attr interpolationmode  none
attr source  rcvdPk
attr title  "packets received, sum(packetBytes)"
scalar scenarioPRJP1.node[73].udp 	sentPk:count 	2607
attr interpolationmode  none
attr source  sentPk
attr title  "packets sent, count"
scalar scenarioPRJP1.node[73].udp 	sentPk:sum(packetBytes) 	1355640
attr interpolationmode  none
attr source  sentPk
attr title  "packets sent, sum(packetBytes)"
scalar scenarioPRJP1.node[73].networkLayer.arp 	failedARPResolution:count 	4
attr title  "ARP failed resolutions, count"
scalar scenarioPRJP1.node[73].networkLayer.arp 	completedARPResolution:count 	407
attr title  "ARP completed resolutions, count"
scalar scenarioPRJP1.node[73].networkLayer.arp 	initiatedARPResolution:count 	59
attr title  "ARP initiated resolutions, count"
scalar scenarioPRJP1.node[73].networkLayer.arp 	sentReply:count 	51
attr title  "ARP replies sent, count"
scalar scenarioPRJP1.node[73].networkLayer.arp 	sentReq:count 	80
attr title  "ARP request sent, count"
scalar scenarioPRJP1.node[73].mobility 	startTime 	7.4
scalar scenarioPRJP1.node[73].mobility 	totalTime 	942.6
scalar scenarioPRJP1.node[73].mobility 	stopTime 	950
scalar scenarioPRJP1.node[73].mobility 	minSpeed 	2.4755573001057e-13
scalar scenarioPRJP1.node[73].mobility 	maxSpeed 	16.004718346978
scalar scenarioPRJP1.node[73].mobility 	totalDistance 	9338.2647677787
scalar scenarioPRJP1.node[73].mobility 	totalCO2Emission 	2366.0585809824
scalar scenarioPRJP1.node[73].wlan.mgmt 	dataQueueLen:max 	0
attr interpolationmode  sample-hold
attr title  "data queue length, max"
scalar scenarioPRJP1.node[73].wlan.mgmt 	dataQueueLen:timeavg 	0
attr interpolationmode  sample-hold
attr title  "data queue length, timeavg"
scalar scenarioPRJP1.node[73].wlan.mgmt 	dropPkByQueue:count 	0
attr interpolationmode  none
attr source  dropPkByQueue
attr title  "packets dropped by queue, count"
scalar scenarioPRJP1.node[73].wlan.mgmt 	dropPkByQueue:sum(packetBytes) 	0
attr interpolationmode  none
attr source  dropPkByQueue
attr title  "packets dropped by queue, sum(packetBytes)"
scalar scenarioPRJP1.node[73].wlan.mac 	"number of received packets" 	1151
scalar scenarioPRJP1.node[73].wlan.mac 	"number of collisions" 	4748
scalar scenarioPRJP1.node[73].wlan.mac 	"number of internal collisions" 	0
scalar scenarioPRJP1.node[73].wlan.mac 	"number of retry for AC 0" 	2103
scalar scenarioPRJP1.node[73].wlan.mac 	"number of retry for AC 1" 	33
scalar scenarioPRJP1.node[73].wlan.mac 	"number of retry for AC 2" 	0
scalar scenarioPRJP1.node[73].wlan.mac 	"number of retry for AC 3" 	0
scalar scenarioPRJP1.node[73].wlan.mac 	"sent and received bits" 	23802240
scalar scenarioPRJP1.node[73].wlan.mac 	"sent packet within AC 0" 	496
scalar scenarioPRJP1.node[73].wlan.mac 	"sent packet within AC 1" 	34
scalar scenarioPRJP1.node[73].wlan.mac 	"sent packet within AC 2" 	0
scalar scenarioPRJP1.node[73].wlan.mac 	"sent packet within AC 3" 	0
scalar scenarioPRJP1.node[73].wlan.mac 	"sent in TXOP " 	0
scalar scenarioPRJP1.node[73].wlan.mac 	"sentWithoutRetry AC 0" 	454
scalar scenarioPRJP1.node[73].wlan.mac 	"sentWithoutRetry AC 1" 	32
scalar scenarioPRJP1.node[73].wlan.mac 	"sentWithoutRetry AC 2" 	0
scalar scenarioPRJP1.node[73].wlan.mac 	"sentWithoutRetry AC 3" 	0
scalar scenarioPRJP1.node[73].wlan.mac 	"numGivenUp AC 0" 	331
scalar scenarioPRJP1.node[73].wlan.mac 	"numGivenUp AC 1" 	5
scalar scenarioPRJP1.node[73].wlan.mac 	"numGivenUp AC 2" 	0
scalar scenarioPRJP1.node[73].wlan.mac 	"numGivenUp AC 3" 	0
scalar scenarioPRJP1.node[73].wlan.mac 	"numDropped AC 0" 	0
scalar scenarioPRJP1.node[73].wlan.mac 	"numDropped AC 1" 	0
scalar scenarioPRJP1.node[73].wlan.mac 	"numDropped AC 2" 	0
scalar scenarioPRJP1.node[73].wlan.mac 	"numDropped AC 3" 	0
scalar scenarioPRJP1.node[73].wlan.mac 	rcvdPkFromLL:count 	36228
attr interpolationmode  none
attr source  packetReceivedFromLower
attr title  "packets received from lower layer, count"
scalar scenarioPRJP1.node[73].wlan.mac 	rcvdPkFromLL:sum(packetBytes) 	21801878
attr interpolationmode  none
attr source  packetReceivedFromLower
attr title  "packets received from lower layer, sum(packetBytes)"
scalar scenarioPRJP1.node[73].wlan.mac 	sentDownPk:count 	6789
attr interpolationmode  none
attr source  packetSentToLower
attr title  "packets sent to lower layer, count"
scalar scenarioPRJP1.node[73].wlan.mac 	sentDownPk:sum(packetBytes) 	4313418
attr interpolationmode  none
attr source  packetSentToLower
attr title  "packets sent to lower layer, sum(packetBytes)"
scalar scenarioPRJP1.node[73].wlan.mac 	rcvdPkFromHL:count 	3502
attr interpolationmode  none
attr source  packetReceivedFromUpper
attr title  "packets received from higher layer, count"
scalar scenarioPRJP1.node[73].wlan.mac 	rcvdPkFromHL:sum(packetBytes) 	3155644
attr interpolationmode  none
attr source  packetReceivedFromUpper
attr title  "packets received from higher layer, sum(packetBytes)"
scalar scenarioPRJP1.node[73].wlan.mac 	passedUpPk:count 	13312
attr interpolationmode  none
attr source  packetSentToUpper
attr title  "packets passed to higher layer, count"
scalar scenarioPRJP1.node[73].wlan.mac 	passedUpPk:sum(packetBytes) 	13229464
attr interpolationmode  none
attr source  packetSentToUpper
attr title  "packets passed to higher layer, sum(packetBytes)"
statistic scenarioPRJP1.node[73].wlan.radio 	radioChannel:histogram
field count 1
field mean 3
field stddev -nan
field sum 3
field sqrsum 9
field min 3
field max 3
attr interpolationmode  sample-hold
attr source  radioChannelChanged
attr title  "Radio channel, histogram"
bin	-INF	0
bin	2	0
bin	3	1
bin	4	0
scalar scenarioPRJP1.node[73].wlan.radio 	transmissionState:count 	27156
attr interpolationmode  sample-hold
attr source  transmissionStateChanged
attr title  "Radio transmission state, count"
scalar scenarioPRJP1.node[73].wlan.radio 	receptionState:count 	86555
attr interpolationmode  sample-hold
attr source  receptionStateChanged
attr title  "Radio reception state, count"
scalar scenarioPRJP1.node[73].wlan.radio 	radioMode:count 	13580
attr interpolationmode  sample-hold
attr source  radioModeChanged
attr title  "Radio mode, count"
statistic scenarioPRJP1.node[73].wlan.radio 	symbolErrorRate:histogram
field count 0
field mean -nan
field stddev -nan
field sum 0
field sqrsum 0
field min -nan
field max -nan
attr source  symbolErrorRate
attr title  "Symbol error rate, histogram"
bin	-INF	0
bin	-0.5	0
bin	-0.46666666666667	0
bin	-0.43333333333333	0
bin	-0.4	0
bin	-0.36666666666667	0
bin	-0.33333333333333	0
bin	-0.3	0
bin	-0.26666666666667	0
bin	-0.23333333333333	0
bin	-0.2	0
bin	-0.16666666666667	0
bin	-0.13333333333333	0
bin	-0.1	0
bin	-0.066666666666667	0
bin	-0.033333333333333	0
bin	-6.9388939039072e-18	0
bin	0.033333333333333	0
bin	0.066666666666667	0
bin	0.1	0
bin	0.13333333333333	0
bin	0.16666666666667	0
bin	0.2	0
bin	0.23333333333333	0
bin	0.26666666666667	0
bin	0.3	0
bin	0.33333333333333	0
bin	0.36666666666667	0
bin	0.4	0
bin	0.43333333333333	0
bin	0.46666666666667	0
bin	0.5	0
statistic scenarioPRJP1.node[73].wlan.radio 	bitErrorRate:histogram
field count 0
field mean -nan
field stddev -nan
field sum 0
field sqrsum 0
field min -nan
field max -nan
attr source  bitErrorRate
attr title  "Bit error rate, histogram"
bin	-INF	0
bin	-0.5	0
bin	-0.46666666666667	0
bin	-0.43333333333333	0
bin	-0.4	0
bin	-0.36666666666667	0
bin	-0.33333333333333	0
bin	-0.3	0
bin	-0.26666666666667	0
bin	-0.23333333333333	0
bin	-0.2	0
bin	-0.16666666666667	0
bin	-0.13333333333333	0
bin	-0.1	0
bin	-0.066666666666667	0
bin	-0.033333333333333	0
bin	-6.9388939039072e-18	0
bin	0.033333333333333	0
bin	0.066666666666667	0
bin	0.1	0
bin	0.13333333333333	0
bin	0.16666666666667	0
bin	0.2	0
bin	0.23333333333333	0
bin	0.26666666666667	0
bin	0.3	0
bin	0.33333333333333	0
bin	0.36666666666667	0
bin	0.4	0
bin	0.43333333333333	0
bin	0.46666666666667	0
bin	0.5	0
statistic scenarioPRJP1.node[73].wlan.radio 	packetErrorRate:histogram
field count 36228
field mean 0.12138843449586
field stddev 0.31767004272567
field sum 4397.6602049162
field sqrsum 4189.6458414737
field min 0
field max 1
attr source  packetErrorRate
attr title  "Packet error rate, histogram"
bin	-INF	0
bin	-0.5	0
bin	-0.43333333333333	0
bin	-0.36666666666667	0
bin	-0.3	0
bin	-0.23333333333333	0
bin	-0.16666666666667	0
bin	-0.1	0
bin	-0.033333333333333	30955
bin	0.033333333333333	348
bin	0.1	197
bin	0.16666666666667	108
bin	0.23333333333333	88
bin	0.3	76
bin	0.36666666666667	81
bin	0.43333333333333	62
bin	0.5	48
bin	0.56666666666667	53
bin	0.63333333333333	59
bin	0.7	50
bin	0.76666666666667	48
bin	0.83333333333333	66
bin	0.9	99
bin	0.96666666666667	3890
bin	1.0333333333333	0
bin	1.1	0
bin	1.1666666666667	0
bin	1.2333333333333	0
bin	1.3	0
bin	1.3666666666667	0
bin	1.4333333333333	0
bin	1.5	0
statistic scenarioPRJP1.node[73].wlan.radio 	minSNIR:histogram
field count 36228
field mean 5229.0997326846
field stddev 43206.063037772
field sum 189439825.1157
field sqrsum 68617854936425
field min 0.0026404593521814
field max 908365.05663207
attr source  minSNIR
attr title  "Min SNIR, histogram"
bin	-INF	0
bin	-14636.928401839	0
bin	-12685.284506294	0
bin	-10733.64061075	0
bin	-8781.9967152057	0
bin	-6830.3528196613	0
bin	-4878.7089241169	0
bin	-2927.0650285725	0
bin	-975.42113302814	30886
bin	976.22276251624	1927
bin	2927.8666580606	656
bin	4879.510553605	411
bin	6831.1544491494	249
bin	8782.7983446938	207
bin	10734.442240238	234
bin	12686.086135783	162
bin	14637.730031327	118
bin	16589.373926871	103
bin	18541.017822416	76
bin	20492.66171796	98
bin	22444.305613504	117
bin	24395.949509049	37
bin	26347.593404593	36
bin	28299.237300138	45
bin	30250.881195682	32
bin	32202.525091226	20
bin	34154.168986771	31
bin	36105.812882315	24
bin	38057.45677786	18
bin	40009.100673404	14
bin	41960.744568948	14
bin	43912.388464493	713
scalar scenarioPRJP1.node[73].lo0.lo 	droppedPkBitError:count 	0
attr interpolationmode  none
attr source  dropPkBitError
attr title  "packets dropped/bit error, count"
scalar scenarioPRJP1.node[73].lo0.lo 	droppedPkBitError:sum(packetBytes) 	0
attr interpolationmode  none
attr source  dropPkBitError
attr title  "packets dropped/bit error, sum(packetBytes)"
scalar scenarioPRJP1.node[73].lo0.lo 	rcvdPkFromHL:count 	6
attr interpolationmode  none
attr source  packetReceivedFromUpper
attr title  "packets received from higher layer, count"
scalar scenarioPRJP1.node[73].lo0.lo 	rcvdPkFromHL:sum(packetBytes) 	336
attr interpolationmode  none
attr source  packetReceivedFromUpper
attr title  "packets received from higher layer, sum(packetBytes)"
scalar scenarioPRJP1.node[73].lo0.lo 	passedUpPk:count 	6
attr interpolationmode  none
attr source  packetSentToUpper
attr title  "packets passed to higher layer, count"
scalar scenarioPRJP1.node[73].lo0.lo 	passedUpPk:sum(packetBytes) 	336
attr interpolationmode  none
attr source  packetSentToUpper
attr title  "packets passed to higher layer, sum(packetBytes)"
scalar scenarioPRJP1.node[93].app 	"Total sent" 	2618
scalar scenarioPRJP1.node[93].app 	"Total received" 	208
scalar scenarioPRJP1.node[93].app 	"Total deleted" 	0
scalar scenarioPRJP1.node[93].app 	dropPk:count 	0
attr interpolationmode  none
attr source  dropPk
attr title  "packets dropped, count"
scalar scenarioPRJP1.node[93].app 	dropPk:sum(packetBytes) 	0
attr interpolationmode  none
attr source  dropPk
attr title  "packets dropped, sum(packetBytes)"
scalar scenarioPRJP1.node[93].app 	outOfOrderPk:count 	0
attr interpolationmode  none
attr source  outOfOrderPk
attr title  "packets received out of order, count"
scalar scenarioPRJP1.node[93].app 	outOfOrderPk:sum(packetBytes) 	0
attr interpolationmode  none
attr source  outOfOrderPk
attr title  "packets received out of order, sum(packetBytes)"
scalar scenarioPRJP1.node[93].app 	rcvdPk:count 	208
attr interpolationmode  none
attr source  rcvdPk
attr title  "packets received, count"
scalar scenarioPRJP1.node[93].app 	rcvdPk:sum(packetBytes) 	106496
attr interpolationmode  none
attr source  rcvdPk
attr title  "packets received, sum(packetBytes)"
statistic scenarioPRJP1.node[93].app 	endToEndDelay:histogram
field count 208
field mean 0.092033686660697
field stddev 0.31137016006353
field sum 19.143006825425
field sqrsum 21.830736443559
field min 0.000945064259
field max 2.793117322175
attr interpolationmode  none
attr source  messageAge(rcvdPk)
attr title  "delay, histogram"
attr unit  s
bin	-INF	0
bin	-0.6269292552345	0
bin	-0.54321267869523	0
bin	-0.45949610215597	0
bin	-0.3757795256167	0
bin	-0.29206294907743	0
bin	-0.20834637253817	0
bin	-0.1246297959989	0
bin	-0.040913219459633	177
bin	0.042803357079633	14
bin	0.1265199336189	0
bin	0.21023651015817	0
bin	0.29395308669743	2
bin	0.3776696632367	0
bin	0.46138623977597	2
bin	0.54510281631523	0
bin	0.6288193928545	1
bin	0.71253596939377	0
bin	0.79625254593303	0
bin	0.8799691224723	0
bin	0.96368569901157	8
bin	1.0474022755508	1
bin	1.1311188520901	0
bin	1.2148354286294	1
bin	1.2985520051686	1
bin	1.3822685817079	0
bin	1.4659851582472	0
bin	1.5497017347864	0
bin	1.6334183113257	0
bin	1.717134887865	0
bin	1.8008514644042	0
bin	1.8845680409435	1
scalar scenarioPRJP1.node[93].app 	sentPk:count 	2618
attr interpolationmode  none
attr source  sentPk
attr title  "packets sent, count"
scalar scenarioPRJP1.node[93].app 	sentPk:sum(packetBytes) 	1340416
attr interpolationmode  none
attr source  sentPk
attr title  "packets sent, sum(packetBytes)"
scalar scenarioPRJP1.node[93].udp 	droppedPkBadChecksum:count 	0
attr interpolationmode  none
attr title  "packets dropped (checksum error), count"
scalar scenarioPRJP1.node[93].udp 	droppedPkWrongPort:count 	0
attr interpolationmode  none
attr title  "packets dropped (wrong port), count"
scalar scenarioPRJP1.node[93].udp 	passedUpPk:count 	208
attr interpolationmode  none
attr title  "packets passed up, count"
scalar scenarioPRJP1.node[93].udp 	rcvdPk:count 	208
attr interpolationmode  none
attr source  rcvdPk
attr title  "packets received, count"
scalar scenarioPRJP1.node[93].udp 	rcvdPk:sum(packetBytes) 	108160
attr interpolationmode  none
attr source  rcvdPk
attr title  "packets received, sum(packetBytes)"
scalar scenarioPRJP1.node[93].udp 	sentPk:count 	2618
attr interpolationmode  none
attr source  sentPk
attr title  "packets sent, count"
scalar scenarioPRJP1.node[93].udp 	sentPk:sum(packetBytes) 	1361360
attr interpolationmode  none
attr source  sentPk
attr title  "packets sent, sum(packetBytes)"
scalar scenarioPRJP1.node[93].networkLayer.arp 	failedARPResolution:count 	12
attr title  "ARP failed resolutions, count"
scalar scenarioPRJP1.node[93].networkLayer.arp 	completedARPResolution:count 	710
attr title  "ARP completed resolutions, count"
scalar scenarioPRJP1.node[93].networkLayer.arp 	initiatedARPResolution:count 	86
attr title  "ARP initiated resolutions, count"
scalar scenarioPRJP1.node[93].networkLayer.arp 	sentReply:count 	60
attr title  "ARP replies sent, count"
scalar scenarioPRJP1.node[93].networkLayer.arp 	sentReq:count 	131
attr title  "ARP request sent, count"
scalar scenarioPRJP1.node[93].mobility 	startTime 	9.8
scalar scenarioPRJP1.node[93].mobility 	totalTime 	940.2
scalar scenarioPRJP1.node[93].mobility 	stopTime 	950
scalar scenarioPRJP1.node[93].mobility 	minSpeed 	2.4755654272887e-13
scalar scenarioPRJP1.node[93].mobility 	maxSpeed 	17.282174638268
scalar scenarioPRJP1.node[93].mobility 	totalDistance 	8472.221411359
scalar scenarioPRJP1.node[93].mobility 	totalCO2Emission 	2352.1741085547
scalar scenarioPRJP1.node[93].wlan.mgmt 	dataQueueLen:max 	2
attr interpolationmode  sample-hold
attr title  "data queue length, max"
scalar scenarioPRJP1.node[93].wlan.mgmt 	dataQueueLen:timeavg 	0
attr interpolationmode  sample-hold
attr title  "data queue length, timeavg"
scalar scenarioPRJP1.node[93].wlan.mgmt 	dropPkByQueue:count 	0
attr interpolationmode  none
attr source  dropPkByQueue
attr title  "packets dropped by queue, count"
scalar scenarioPRJP1.node[93].wlan.mgmt 	dropPkByQueue:sum(packetBytes) 	0
attr interpolationmode  none
attr source  dropPkByQueue
attr title  "packets dropped by queue, sum(packetBytes)"
scalar scenarioPRJP1.node[93].wlan.mac 	"number of received packets" 	2442
scalar scenarioPRJP1.node[93].wlan.mac 	"number of collisions" 	9398
scalar scenarioPRJP1.node[93].wlan.mac 	"number of internal collisions" 	0
scalar scenarioPRJP1.node[93].wlan.mac 	"number of retry for AC 0" 	3151
scalar scenarioPRJP1.node[93].wlan.mac 	"number of retry for AC 1" 	63
scalar scenarioPRJP1.node[93].wlan.mac 	"number of retry for AC 2" 	0
scalar scenarioPRJP1.node[93].wlan.mac 	"number of retry for AC 3" 	0
scalar scenarioPRJP1.node[93].wlan.mac 	"sent and received bits" 	32734368
scalar scenarioPRJP1.node[93].wlan.mac 	"sent packet within AC 0" 	1222
scalar scenarioPRJP1.node[93].wlan.mac 	"sent packet within AC 1" 	55
scalar scenarioPRJP1.node[93].wlan.mac 	"sent packet within AC 2" 	0
scalar scenarioPRJP1.node[93].wlan.mac 	"sent packet within AC 3" 	0
scalar scenarioPRJP1.node[93].wlan.mac 	"sent in TXOP " 	0
scalar scenarioPRJP1.node[93].wlan.mac 	"sentWithoutRetry AC 0" 	1150
scalar scenarioPRJP1.node[93].wlan.mac 	"sentWithoutRetry AC 1" 	54
scalar scenarioPRJP1.node[93].wlan.mac 	"sentWithoutRetry AC 2" 	0
scalar scenarioPRJP1.node[93].wlan.mac 	"sentWithoutRetry AC 3" 	0
scalar scenarioPRJP1.node[93].wlan.mac 	"numGivenUp AC 0" 	500
scalar scenarioPRJP1.node[93].wlan.mac 	"numGivenUp AC 1" 	10
scalar scenarioPRJP1.node[93].wlan.mac 	"numGivenUp AC 2" 	0
scalar scenarioPRJP1.node[93].wlan.mac 	"numGivenUp AC 3" 	0
scalar scenarioPRJP1.node[93].wlan.mac 	"numDropped AC 0" 	0
scalar scenarioPRJP1.node[93].wlan.mac 	"numDropped AC 1" 	0
scalar scenarioPRJP1.node[93].wlan.mac 	"numDropped AC 2" 	0
scalar scenarioPRJP1.node[93].wlan.mac 	"numDropped AC 3" 	0
scalar scenarioPRJP1.node[93].wlan.mac 	rcvdPkFromLL:count 	76941
attr interpolationmode  none
attr source  packetReceivedFromLower
attr title  "packets received from lower layer, count"
scalar scenarioPRJP1.node[93].wlan.mac 	rcvdPkFromLL:sum(packetBytes) 	42254532
attr interpolationmode  none
attr source  packetReceivedFromLower
attr title  "packets received from lower layer, sum(packetBytes)"
scalar scenarioPRJP1.node[93].wlan.mac 	sentDownPk:count 	10802
attr interpolationmode  none
attr source  packetSentToLower
attr title  "packets sent to lower layer, count"
scalar scenarioPRJP1.node[93].wlan.mac 	sentDownPk:sum(packetBytes) 	6119452
attr interpolationmode  none
attr source  packetSentToLower
attr title  "packets sent to lower layer, sum(packetBytes)"
scalar scenarioPRJP1.node[93].wlan.mac 	rcvdPkFromHL:count 	5146
attr interpolationmode  none
attr source  packetReceivedFromUpper
attr title  "packets received from higher layer, count"
scalar scenarioPRJP1.node[93].wlan.mac 	rcvdPkFromHL:sum(packetBytes) 	4364332
attr interpolationmode  none
attr source  packetReceivedFromUpper
attr title  "packets received from higher layer, sum(packetBytes)"
scalar scenarioPRJP1.node[93].wlan.mac 	passedUpPk:count 	22724
attr interpolationmode  none
attr source  packetSentToUpper
attr title  "packets passed to higher layer, count"
scalar scenarioPRJP1.node[93].wlan.mac 	passedUpPk:sum(packetBytes) 	22269360
attr interpolationmode  none
attr source  packetSentToUpper
attr title  "packets passed to higher layer, sum(packetBytes)"
statistic scenarioPRJP1.node[93].wlan.radio 	radioChannel:histogram
field count 1
field mean 3
field stddev -nan
field sum 3
field sqrsum 9
field min 3
field max 3
attr interpolationmode  sample-hold
attr source  radioChannelChanged
attr title  "Radio channel, histogram"
bin	-INF	0
bin	2	0
bin	3	1
bin	4	0
scalar scenarioPRJP1.node[93].wlan.radio 	transmissionState:count 	43208
attr interpolationmode  sample-hold
attr source  transmissionStateChanged
attr title  "Radio transmission state, count"
scalar scenarioPRJP1.node[93].wlan.radio 	receptionState:count 	176925
attr interpolationmode  sample-hold
attr source  receptionStateChanged
attr title  "Radio reception state, count"
scalar scenarioPRJP1.node[93].wlan.radio 	radioMode:count 	21606
attr interpolationmode  sample-hold
attr source  radioModeChanged
attr title  "Radio mode, count"
statistic scenarioPRJP1.node[93].wlan.radio 	symbolErrorRate:histogram
field count 0
field mean -nan
field stddev -nan
field sum 0
field sqrsum 0
field min -nan
field max -nan
attr source  symbolErrorRate
attr title  "Symbol error rate, histogram"
bin	-INF	0
bin	-0.5	0
bin	-0.46666666666667	0
bin	-0.43333333333333	0
bin	-0.4	0
bin	-0.36666666666667	0
bin	-0.33333333333333	0
bin	-0.3	0
bin	-0.26666666666667	0
bin	-0.23333333333333	0
bin	-0.2	0
bin	-0.16666666666667	0
bin	-0.13333333333333	0
bin	-0.1	0
bin	-0.066666666666667	0
bin	-0.033333333333333	0
bin	-6.9388939039072e-18	0
bin	0.033333333333333	0
bin	0.066666666666667	0
bin	0.1	0
bin	0.13333333333333	0
bin	0.16666666666667	0
bin	0.2	0
bin	0.23333333333333	0
bin	0.26666666666667	0
bin	0.3	0
bin	0.33333333333333	0
bin	0.36666666666667	0
bin	0.4	0
bin	0.43333333333333	0
bin	0.46666666666667	0
bin	0.5	0
statistic scenarioPRJP1.node[93].wlan.radio 	bitErrorRate:histogram
field count 0
field mean -nan
field stddev -nan
field sum 0
field sqrsum 0
field min -nan
field max -nan
attr source  bitErrorRate
attr title  "Bit error rate, histogram"
bin	-INF	0
bin	-0.5	0
bin	-0.46666666666667	0
bin	-0.43333333333333	0
bin	-0.4	0
bin	-0.36666666666667	0
bin	-0.33333333333333	0
bin	-0.3	0
bin	-0.26666666666667	0
bin	-0.23333333333333	0
bin	-0.2	0
bin	-0.16666666666667	0
bin	-0.13333333333333	0
bin	-0.1	0
bin	-0.066666666666667	0
bin	-0.033333333333333	0
bin	-6.9388939039072e-18	0
bin	0.033333333333333	0
bin	0.066666666666667	0
bin	0.1	0
bin	0.13333333333333	0
bin	0.16666666666667	0
bin	0.2	0
bin	0.23333333333333	0
bin	0.26666666666667	0
bin	0.3	0
bin	0.33333333333333	0
bin	0.36666666666667	0
bin	0.4	0
bin	0.43333333333333	0
bin	0.46666666666667	0
bin	0.5	0
statistic scenarioPRJP1.node[93].wlan.radio 	packetErrorRate:histogram
field count 76941
field mean 0.1135808832898
field stddev 0.30949453521773
field sum 8739.0267412005
field sqrsum 8362.4279487012
field min 0
field max 1
attr source  packetErrorRate
attr title  "Packet error rate, histogram"
bin	-INF	0
bin	-1	0
bin	0	70175
bin	1	6766
bin	2	0
statistic scenarioPRJP1.node[93].wlan.radio 	minSNIR:histogram
field count 76941
field mean 10759.774753859
field stddev 68359.396889877
field sum 827867829.33668
field sqrsum 3.6844884096341e+14
field min 0.00016993202541053
field max 835081.83056939
attr source  minSNIR
attr title  "Min SNIR, histogram"
bin	-INF	0
bin	-17422.229693316	0
bin	-15099.175309035	0
bin	-12776.120924753	0
bin	-10453.066540472	0
bin	-8130.0121561909	0
bin	-5806.9577719097	0
bin	-3483.9033876284	0
bin	-1160.8490033472	62064
bin	1162.205380934	4910
bin	3485.2597652153	1645
bin	5808.3141494965	1031
bin	8131.3685337777	661
bin	10454.422918059	699
bin	12777.47730234	620
bin	15100.531686621	361
bin	17423.586070903	547
bin	19746.640455184	276
bin	22069.694839465	542
bin	24392.749223746	241
bin	26715.803608028	163
bin	29038.857992309	82
bin	31361.91237659	86
bin	33684.966760871	78
bin	36008.021145153	74
bin	38331.075529434	101
bin	40654.129913715	39
bin	42977.184297996	70
bin	45300.238682278	53
bin	47623.293066559	50
bin	49946.34745084	53
bin	52269.401835121	2495
scalar scenarioPRJP1.node[93].lo0.lo 	droppedPkBitError:count 	0
attr interpolationmode  none
attr source  dropPkBitError
attr title  "packets dropped/bit error, count"
scalar scenarioPRJP1.node[93].lo0.lo 	droppedPkBitError:sum(packetBytes) 	0
attr interpolationmode  none
attr source  dropPkBitError
attr title  "packets dropped/bit error, sum(packetBytes)"
scalar scenarioPRJP1.node[93].lo0.lo 	rcvdPkFromHL:count 	6
attr interpolationmode  none
attr source  packetReceivedFromUpper
attr title  "packets received from higher layer, count"
scalar scenarioPRJP1.node[93].lo0.lo 	rcvdPkFromHL:sum(packetBytes) 	336
attr interpolationmode  none
attr source  packetReceivedFromUpper
attr title  "packets received from higher layer, sum(packetBytes)"
scalar scenarioPRJP1.node[93].lo0.lo 	passedUpPk:count 	6
attr interpolationmode  none
attr source  packetSentToUpper
attr title  "packets passed to higher layer, count"
scalar scenarioPRJP1.node[93].lo0.lo 	passedUpPk:sum(packetBytes) 	336
attr interpolationmode  none
attr source  packetSentToUpper
attr title  "packets passed to higher layer, sum(packetBytes)"
scalar scenarioPRJP1.node[1].app 	"Total sent" 	2605
scalar scenarioPRJP1.node[1].app 	"Total received" 	196
scalar scenarioPRJP1.node[1].app 	"Total deleted" 	0
scalar scenarioPRJP1.node[1].app 	dropPk:count 	0
attr interpolationmode  none
attr source  dropPk
attr title  "packets dropped, count"
scalar scenarioPRJP1.node[1].app 	dropPk:sum(packetBytes) 	0
attr interpolationmode  none
attr source  dropPk
attr title  "packets dropped, sum(packetBytes)"
scalar scenarioPRJP1.node[1].app 	outOfOrderPk:count 	1
attr interpolationmode  none
attr source  outOfOrderPk
attr title  "packets received out of order, count"
scalar scenarioPRJP1.node[1].app 	outOfOrderPk:sum(packetBytes) 	512
attr interpolationmode  none
attr source  outOfOrderPk
attr title  "packets received out of order, sum(packetBytes)"
scalar scenarioPRJP1.node[1].app 	rcvdPk:count 	196
attr interpolationmode  none
attr source  rcvdPk
attr title  "packets received, count"
scalar scenarioPRJP1.node[1].app 	rcvdPk:sum(packetBytes) 	100352
attr interpolationmode  none
attr source  rcvdPk
attr title  "packets received, sum(packetBytes)"
statistic scenarioPRJP1.node[1].app 	endToEndDelay:histogram
field count 196
field mean 0.093633133142597
field stddev 0.3469297152494
field sum 18.352094095949
field sqrsum 25.188608397922
field min 0.000945022674
field max 2.023424170283
attr interpolationmode  none
attr source  messageAge(rcvdPk)
attr title  "delay, histogram"
attr unit  s
bin	-INF	0
bin	-1.0102940558245	0
bin	-0.87546213466417	0
bin	-0.74063021350383	0
bin	-0.6057982923435	0
bin	-0.47096637118317	0
bin	-0.33613445002283	0
bin	-0.2013025288625	0
bin	-0.066470607702167	183
bin	0.068361313458167	0
bin	0.2031932346185	0
bin	0.33802515577883	1
bin	0.47285707693917	0
bin	0.6076889980995	0
bin	0.74252091925983	1
bin	0.87735284042017	2
bin	1.0121847615805	3
bin	1.1470166827408	2
bin	1.2818486039012	0
bin	1.4166805250615	0
bin	1.5515124462218	0
bin	1.6863443673822	0
bin	1.8211762885425	0
bin	1.9560082097028	4
bin	2.0908401308632	0
bin	2.2256720520235	0
bin	2.3605039731838	0
bin	2.4953358943442	0
bin	2.6301678155045	0
bin	2.7649997366648	0
bin	2.8998316578252	0
bin	3.0346635789855	0
scalar scenarioPRJP1.node[1].app 	sentPk:count 	2605
attr interpolationmode  none
attr source  sentPk
attr title  "packets sent, count"
scalar scenarioPRJP1.node[1].app 	sentPk:sum(packetBytes) 	1333760
attr interpolationmode  none
attr source  sentPk
attr title  "packets sent, sum(packetBytes)"
scalar scenarioPRJP1.node[1].udp 	droppedPkBadChecksum:count 	0
attr interpolationmode  none
attr title  "packets dropped (checksum error), count"
scalar scenarioPRJP1.node[1].udp 	droppedPkWrongPort:count 	0
attr interpolationmode  none
attr title  "packets dropped (wrong port), count"
scalar scenarioPRJP1.node[1].udp 	passedUpPk:count 	197
attr interpolationmode  none
attr title  "packets passed up, count"
scalar scenarioPRJP1.node[1].udp 	rcvdPk:count 	197
attr interpolationmode  none
attr source  rcvdPk
attr title  "packets received, count"
scalar scenarioPRJP1.node[1].udp 	rcvdPk:sum(packetBytes) 	102440
attr interpolationmode  none
attr source  rcvdPk
attr title  "packets received, sum(packetBytes)"
scalar scenarioPRJP1.node[1].udp 	sentPk:count 	2605
attr interpolationmode  none
attr source  sentPk
attr title  "packets sent, count"
scalar scenarioPRJP1.node[1].udp 	sentPk:sum(packetBytes) 	1354600
attr interpolationmode  none
attr source  sentPk
attr title  "packets sent, sum(packetBytes)"
scalar scenarioPRJP1.node[1].networkLayer.arp 	failedARPResolution:count 	18
attr title  "ARP failed resolutions, count"
scalar scenarioPRJP1.node[1].networkLayer.arp 	completedARPResolution:count 	595
attr title  "ARP completed resolutions, count"
scalar scenarioPRJP1.node[1].networkLayer.arp 	initiatedARPResolution:count 	90
attr title  "ARP initiated resolutions, count"
scalar scenarioPRJP1.node[1].networkLayer.arp 	sentReply:count 	48
attr title  "ARP replies sent, count"
scalar scenarioPRJP1.node[1].networkLayer.arp 	sentReq:count 	144
attr title  "ARP request sent, count"
scalar scenarioPRJP1.node[1].mobility 	startTime 	0.1
scalar scenarioPRJP1.node[1].mobility 	totalTime 	949.9
scalar scenarioPRJP1.node[1].mobility 	stopTime 	950
scalar scenarioPRJP1.node[1].mobility 	minSpeed 	2.4755883569746e-13
scalar scenarioPRJP1.node[1].mobility 	maxSpeed 	20.707538370893
scalar scenarioPRJP1.node[1].mobility 	totalDistance 	10430.853599873
scalar scenarioPRJP1.node[1].mobility 	totalCO2Emission 	2991.24867898
scalar scenarioPRJP1.node[1].wlan.mgmt 	dataQueueLen:max 	1
attr interpolationmode  sample-hold
attr title  "data queue length, max"
scalar scenarioPRJP1.node[1].wlan.mgmt 	dataQueueLen:timeavg 	0
attr interpolationmode  sample-hold
attr title  "data queue length, timeavg"
scalar scenarioPRJP1.node[1].wlan.mgmt 	dropPkByQueue:count 	0
attr interpolationmode  none
attr source  dropPkByQueue
attr title  "packets dropped by queue, count"
scalar scenarioPRJP1.node[1].wlan.mgmt 	dropPkByQueue:sum(packetBytes) 	0
attr interpolationmode  none
attr source  dropPkByQueue
attr title  "packets dropped by queue, sum(packetBytes)"
scalar scenarioPRJP1.node[1].wlan.mac 	"number of received packets" 	1642
scalar scenarioPRJP1.node[1].wlan.mac 	"number of collisions" 	6238
scalar scenarioPRJP1.node[1].wlan.mac 	"number of internal collisions" 	0
scalar scenarioPRJP1.node[1].wlan.mac 	"number of retry for AC 0" 	2288
scalar scenarioPRJP1.node[1].wlan.mac 	"number of retry for AC 1" 	0
scalar scenarioPRJP1.node[1].wlan.mac 	"number of retry for AC 2" 	0
scalar scenarioPRJP1.node[1].wlan.mac 	"number of retry for AC 3" 	0
scalar scenarioPRJP1.node[1].wlan.mac 	"sent and received bits" 	28230112
scalar scenarioPRJP1.node[1].wlan.mac 	"sent packet within AC 0" 	819
scalar scenarioPRJP1.node[1].wlan.mac 	"sent packet within AC 1" 	38
scalar scenarioPRJP1.node[1].wlan.mac 	"sent packet within AC 2" 	0
scalar scenarioPRJP1.node[1].wlan.mac 	"sent packet within AC 3" 	0
scalar scenarioPRJP1.node[1].wlan.mac 	"sent in TXOP " 	0
scalar scenarioPRJP1.node[1].wlan.mac 	"sentWithoutRetry AC 0" 	770
scalar scenarioPRJP1.node[1].wlan.mac 	"sentWithoutRetry AC 1" 	38
scalar scenarioPRJP1.node[1].wlan.mac 	"sentWithoutRetry AC 2" 	0
scalar scenarioPRJP1.node[1].wlan.mac 	"sentWithoutRetry AC 3" 	0
scalar scenarioPRJP1.node[1].wlan.mac 	"numGivenUp AC 0" 	362
scalar scenarioPRJP1.node[1].wlan.mac 	"numGivenUp AC 1" 	0
scalar scenarioPRJP1.node[1].wlan.mac 	"numGivenUp AC 2" 	0
scalar scenarioPRJP1.node[1].wlan.mac 	"numGivenUp AC 3" 	0
scalar scenarioPRJP1.node[1].wlan.mac 	"numDropped AC 0" 	0
scalar scenarioPRJP1.node[1].wlan.mac 	"numDropped AC 1" 	0
scalar scenarioPRJP1.node[1].wlan.mac 	"numDropped AC 2" 	0
scalar scenarioPRJP1.node[1].wlan.mac 	"numDropped AC 3" 	0
scalar scenarioPRJP1.node[1].wlan.mac 	rcvdPkFromLL:count 	53591
attr interpolationmode  none
attr source  packetReceivedFromLower
attr title  "packets received from lower layer, count"
scalar scenarioPRJP1.node[1].wlan.mac 	rcvdPkFromLL:sum(packetBytes) 	31147074
attr interpolationmode  none
attr source  packetReceivedFromLower
attr title  "packets received from lower layer, sum(packetBytes)"
scalar scenarioPRJP1.node[1].wlan.mac 	sentDownPk:count 	8195
attr interpolationmode  none
attr source  packetSentToLower
attr title  "packets sent to lower layer, count"
scalar scenarioPRJP1.node[1].wlan.mac 	sentDownPk:sum(packetBytes) 	4992648
attr interpolationmode  none
attr source  packetSentToLower
attr title  "packets sent to lower layer, sum(packetBytes)"
scalar scenarioPRJP1.node[1].wlan.mac 	rcvdPkFromHL:count 	4265
attr interpolationmode  none
attr source  packetReceivedFromUpper
attr title  "packets received from higher layer, count"
scalar scenarioPRJP1.node[1].wlan.mac 	rcvdPkFromHL:sum(packetBytes) 	3725500
attr interpolationmode  none
attr source  packetReceivedFromUpper
attr title  "packets received from higher layer, sum(packetBytes)"
scalar scenarioPRJP1.node[1].wlan.mac 	passedUpPk:count 	18504
attr interpolationmode  none
attr source  packetSentToUpper
attr title  "packets passed to higher layer, count"
scalar scenarioPRJP1.node[1].wlan.mac 	passedUpPk:sum(packetBytes) 	18278428
attr interpolationmode  none
attr source  packetSentToUpper
attr title  "packets passed to higher layer, sum(packetBytes)"
statistic scenarioPRJP1.node[1].wlan.radio 	radioChannel:histogram
field count 1
field mean 3
field stddev -nan
field sum 3
field sqrsum 9
field min 3
field max 3
attr interpolationmode  sample-hold
attr source  radioChannelChanged
attr title  "Radio channel, histogram"
bin	-INF	0
bin	2	0
bin	3	1
bin	4	0
scalar scenarioPRJP1.node[1].wlan.radio 	transmissionState:count 	32778
attr interpolationmode  sample-hold
attr source  transmissionStateChanged
attr title  "Radio transmission state, count"
scalar scenarioPRJP1.node[1].wlan.radio 	receptionState:count 	124457
attr interpolationmode  sample-hold
attr source  receptionStateChanged
attr title  "Radio reception state, count"
[...]
attr interpolationmode  none
attr source  packetSentToUpper
attr title  "packets passed to higher layer, sum(packetBytes)"
statistic scenarioPRJP1.node[72].wlan.radio 	radioChannel:histogram
field count 1
field mean 3
field stddev -nan
field sum 3
field sqrsum 9
field min 3
field max 3
attr interpolationmode  sample-hold
attr source  radioChannelChanged
attr title  "Radio channel, histogram"
bin	-INF	0
bin	2	0
bin	3	1
bin	4	0
scalar scenarioPRJP1.node[72].wlan.radio 	transmissionState:count 	34296
attr interpolationmode  sample-hold
attr source  transmissionStateChanged
attr title  "Radio transmission state, count"
scalar scenarioPRJP1.node[72].wlan.radio 	receptionState:count 	110985
attr interpolationmode  sample-hold
attr source  receptionStateChanged
attr title  "Radio reception state, count"
scalar scenarioPRJP1.node[72].wlan.radio 	radioMode:count 	17150
attr interpolationmode  sample-hold
attr source  radioModeChanged
attr title  "Radio mode, count"
statistic scenarioPRJP1.node[72].wlan.radio 	symbolErrorRate:histogram
field count 0
field mean -nan
field stddev -nan
field sum 0
field sqrsum 0
field min -nan
field max -nan
attr source  symbolErrorRate
attr title  "Symbol error rate, histogram"
bin	-INF	0
bin	-0.5	0
bin	-0.46666666666667	0
bin	-0.43333333333333	0
bin	-0.4	0
bin	-0.36666666666667	0
bin	-0.33333333333333	0
bin	-0.3	0
bin	-0.26666666666667	0
bin	-0.23333333333333	0
bin	-0.2	0
bin	-0.16666666666667	0
bin	-0.13333333333333	0
bin	-0.1	0
bin	-0.066666666666667	0
bin	-0.033333333333333	0
bin	-6.9388939039072e-18	0
bin	0.033333333333333	0
bin	0.066666666666667	0
bin	0.1	0
bin	0.13333333333333	0
bin	0.16666666666667	0
bin	0.2	0
bin	0.23333333333333	0
bin	0.26666666666667	0
bin	0.3	0
bin	0.33333333333333	0
bin	0.36666666666667	0
bin	0.4	0
bin	0.43333333333333	0
bin	0.46666666666667	0
bin	0.5	0
statistic scenarioPRJP1.node[72].wlan.radio 	bitErrorRate:histogram
field count 0
field mean -nan
field stddev -nan
field sum 0
field sqrsum 0
field min -nan
field max -nan
attr source  bitErrorRate
attr title  "Bit error rate, histogram"
bin	-INF	0
bin	-0.5	0
bin	-0.46666666666667	0
bin	-0.43333333333333	0
bin	-0.4	0
bin	-0.36666666666667	0
bin	-0.33333333333333	0
bin	-0.3	0
bin	-0.26666666666667	0
bin	-0.23333333333333	0
bin	-0.2	0
bin	-0.16666666666667	0
bin	-0.13333333333333	0
bin	-0.1	0
bin	-0.066666666666667	0
bin	-0.033333333333333	0
bin	-6.9388939039072e-18	0
bin	0.033333333333333	0
bin	0.066666666666667	0
bin	0.1	0
bin	0.13333333333333	0
bin	0.16666666666667	0
bin	0.2	0
bin	0.23333333333333	0
bin	0.26666666666667	0
bin	0.3	0
bin	0.33333333333333	0
bin	0.36666666666667	0
bin	0.4	0
bin	0.43333333333333	0
bin	0.46666666666667	0
bin	0.5	0
statistic scenarioPRJP1.node[72].wlan.radio 	packetErrorRate:histogram
field count 46427
field mean 0.11603770961512
field stddev 0.31176247867338
field sum 5387.282744301
field sqrsum 5137.5421628562
field min 0
field max 1
attr source  packetErrorRate
attr title  "Packet error rate, histogram"
bin	-INF	0
bin	-0.5	0
bin	-0.46666666666667	0
bin	-0.43333333333333	0
bin	-0.4	0
bin	-0.36666666666667	0
bin	-0.33333333333333	0
bin	-0.3	0
bin	-0.26666666666667	0
bin	-0.23333333333333	0
bin	-0.2	0
bin	-0.16666666666667	0
bin	-0.13333333333333	0
bin	-0.1	0
bin	-0.066666666666667	0
bin	-0.033333333333333	0
bin	-6.9388939039072e-18	40008
bin	0.033333333333333	244
bin	0.066666666666667	167
bin	0.1	120
bin	0.13333333333333	90
bin	0.16666666666667	81
bin	0.2	70
bin	0.23333333333333	59
bin	0.26666666666667	56
bin	0.3	41
bin	0.33333333333333	39
bin	0.36666666666667	38
bin	0.4	40
bin	0.43333333333333	33
bin	0.46666666666667	39
bin	0.5	5302
statistic scenarioPRJP1.node[72].wlan.radio 	minSNIR:histogram
field count 46427
field mean 6395.7910863348
field stddev 50552.160378665
field sum 296937392.76526
field sqrsum 1.2054176371303e+14
field min 0.00024398917340136
field max 815298.32972785
attr source  minSNIR
attr title  "Min SNIR, histogram"
bin	-INF	0
bin	-19134.20454531	0
bin	-16581.720293817	0
bin	-14029.236042323	0
bin	-11476.751790829	0
bin	-8924.2675393355	0
bin	-6371.7832878418	0
bin	-3819.2990363482	0
bin	-1266.8147848545	39832
bin	1285.6694666392	2403
bin	3838.1537181329	905
bin	6390.6379696265	443
bin	8943.1222211202	377
bin	11495.606472614	284
bin	14048.090724108	234
bin	16600.574975601	163
bin	19153.059227095	160
bin	21705.543478589	155
bin	24258.027730082	83
bin	26810.511981576	58
bin	29362.99623307	54
bin	31915.480484563	59
bin	34467.964736057	39
bin	37020.448987551	48
bin	39572.933239044	56
bin	42125.417490538	36
bin	44677.901742032	35
bin	47230.385993525	43
bin	49782.870245019	31
bin	52335.354496513	22
bin	54887.838748006	20
bin	57440.3229995	887
scalar scenarioPRJP1.node[72].lo0.lo 	droppedPkBitError:count 	0
attr interpolationmode  none
attr source  dropPkBitError
attr title  "packets dropped/bit error, count"
scalar scenarioPRJP1.node[72].lo0.lo 	droppedPkBitError:sum(packetBytes) 	0
attr interpolationmode  none
attr source  dropPkBitError
attr title  "packets dropped/bit error, sum(packetBytes)"
scalar scenarioPRJP1.node[72].lo0.lo 	rcvdPkFromHL:count 	9
attr interpolationmode  none
attr source  packetReceivedFromUpper
attr title  "packets received from higher layer, count"
scalar scenarioPRJP1.node[72].lo0.lo 	rcvdPkFromHL:sum(packetBytes) 	504
attr interpolationmode  none
attr source  packetReceivedFromUpper
attr title  "packets received from higher layer, sum(packetBytes)"
scalar scenarioPRJP1.node[72].lo0.lo 	passedUpPk:count 	9
attr interpolationmode  none
attr source  packetSentToUpper
attr title  "packets passed to higher layer, count"
scalar scenarioPRJP1.node[72].lo0.lo 	passedUpPk:sum(packetBytes) 	504
attr interpolationmode  none
attr source  packetSentToUpper
attr title  "packets passed to higher layer, sum(packetBytes)"
scalar scenarioPRJP1.node[92].app 	"Total sent" 	2615
scalar scenarioPRJP1.node[92].app 	"Total received" 	178
scalar scenarioPRJP1.node[92].app 	"Total deleted" 	0
scalar scenarioPRJP1.node[92].app 	dropPk:count 	0
attr interpolationmode  none
attr source  dropPk
attr title  "packets dropped, count"
scalar scenarioPRJP1.node[92].app 	dropPk:sum(packetBytes) 	0
attr interpolationmode  none
attr source  dropPk
attr title  "packets dropped, sum(packetBytes)"
scalar scenarioPRJP1.node[92].app 	outOfOrderPk:count 	0
attr interpolationmode  none
attr source  outOfOrderPk
attr title  "packets received out of order, count"
scalar scenarioPRJP1.node[92].app 	outOfOrderPk:sum(packetBytes) 	0
attr interpolationmode  none
attr source  outOfOrderPk
attr title  "packets received out of order, sum(packetBytes)"
scalar scenarioPRJP1.node[92].app 	rcvdPk:count 	178
attr interpolationmode  none
attr source  rcvdPk
attr title  "packets received, count"
scalar scenarioPRJP1.node[92].app 	rcvdPk:sum(packetBytes) 	91136
attr interpolationmode  none
attr source  rcvdPk
attr title  "packets received, sum(packetBytes)"
statistic scenarioPRJP1.node[92].app 	endToEndDelay:histogram
field count 178
field mean 0.10051854008888
field stddev 0.38498013017002
field sum 17.892300135821
field sqrsum 28.031624899238
field min 0.000945016785
field max 2.754571689758
attr interpolationmode  none
attr source  messageAge(rcvdPk)
attr title  "delay, histogram"
attr unit  s
bin	-INF	0
bin	-1.3758683197015	0
bin	-1.19229320817	0
bin	-1.0087180966384	0
bin	-0.8251429851069	0
bin	-0.64156787357537	0
bin	-0.45799276204383	0
bin	-0.2744176505123	0
bin	-0.090842538980767	166
bin	0.092732572550767	1
bin	0.2763076840823	0
bin	0.45988279561383	0
bin	0.64345790714537	2
bin	0.8270330186769	1
bin	1.0106081302084	3
bin	1.19418324174	0
bin	1.3777583532715	1
bin	1.561333464803	0
bin	1.7449085763346	0
bin	1.9284836878661	3
bin	2.1120587993976	0
bin	2.2956339109292	0
bin	2.4792090224607	0
bin	2.6627841339922	1
bin	2.8463592455238	0
bin	3.0299343570553	0
bin	3.2135094685868	0
bin	3.3970845801184	0
bin	3.5806596916499	0
bin	3.7642348031814	0
bin	3.947809914713	0
bin	4.1313850262445	0
scalar scenarioPRJP1.node[92].app 	sentPk:count 	2615
attr interpolationmode  none
attr source  sentPk
attr title  "packets sent, count"
scalar scenarioPRJP1.node[92].app 	sentPk:sum(packetBytes) 	1338880
attr interpolationmode  none
attr source  sentPk
attr title  "packets sent, sum(packetBytes)"
scalar scenarioPRJP1.node[92].udp 	droppedPkBadChecksum:count 	0
attr interpolationmode  none
attr title  "packets dropped (checksum error), count"
scalar scenarioPRJP1.node[92].udp 	droppedPkWrongPort:count 	0
attr interpolationmode  none
attr title  "packets dropped (wrong port), count"
scalar scenarioPRJP1.node[92].udp 	passedUpPk:count 	178
attr interpolationmode  none
attr title  "packets passed up, count"
scalar scenarioPRJP1.node[92].udp 	rcvdPk:count 	178
attr interpolationmode  none
attr source  rcvdPk
attr title  "packets received, count"
scalar scenarioPRJP1.node[92].udp 	rcvdPk:sum(packetBytes) 	92560
attr interpolationmode  none
attr source  rcvdPk
attr title  "packets received, sum(packetBytes)"
scalar scenarioPRJP1.node[92].udp 	sentPk:count 	2615
attr interpolationmode  none
attr source  sentPk
attr title  "packets sent, count"
scalar scenarioPRJP1.node[92].udp 	sentPk:sum(packetBytes) 	1359800
attr interpolationmode  none
attr source  sentPk
attr title  "packets sent, sum(packetBytes)"
scalar scenarioPRJP1.node[92].networkLayer.arp 	failedARPResolution:count 	16
attr title  "ARP failed resolutions, count"
scalar scenarioPRJP1.node[92].networkLayer.arp 	completedARPResolution:count 	685
attr title  "ARP completed resolutions, count"
scalar scenarioPRJP1.node[92].networkLayer.arp 	initiatedARPResolution:count 	97
attr title  "ARP initiated resolutions, count"
scalar scenarioPRJP1.node[92].networkLayer.arp 	sentReply:count 	56
attr title  "ARP replies sent, count"
scalar scenarioPRJP1.node[92].networkLayer.arp 	sentReq:count 	161
attr title  "ARP request sent, count"
scalar scenarioPRJP1.node[92].mobility 	startTime 	9.7
scalar scenarioPRJP1.node[92].mobility 	totalTime 	940.3
scalar scenarioPRJP1.node[92].mobility 	stopTime 	950
scalar scenarioPRJP1.node[92].mobility 	minSpeed 	2.4754486335223e-13
scalar scenarioPRJP1.node[92].mobility 	maxSpeed 	17.925647584008
scalar scenarioPRJP1.node[92].mobility 	totalDistance 	8550.3088250636
scalar scenarioPRJP1.node[92].mobility 	totalCO2Emission 	2428.2800426429
scalar scenarioPRJP1.node[92].wlan.mgmt 	dataQueueLen:max 	1
attr interpolationmode  sample-hold
attr title  "data queue length, max"
scalar scenarioPRJP1.node[92].wlan.mgmt 	dataQueueLen:timeavg 	0
attr interpolationmode  sample-hold
attr title  "data queue length, timeavg"
scalar scenarioPRJP1.node[92].wlan.mgmt 	dropPkByQueue:count 	0
attr interpolationmode  none
attr source  dropPkByQueue
attr title  "packets dropped by queue, count"
scalar scenarioPRJP1.node[92].wlan.mgmt 	dropPkByQueue:sum(packetBytes) 	0
attr interpolationmode  none
attr source  dropPkByQueue
attr title  "packets dropped by queue, sum(packetBytes)"
scalar scenarioPRJP1.node[92].wlan.mac 	"number of received packets" 	2051
scalar scenarioPRJP1.node[92].wlan.mac 	"number of collisions" 	8198
scalar scenarioPRJP1.node[92].wlan.mac 	"number of internal collisions" 	1
scalar scenarioPRJP1.node[92].wlan.mac 	"number of retry for AC 0" 	3073
scalar scenarioPRJP1.node[92].wlan.mac 	"number of retry for AC 1" 	42
scalar scenarioPRJP1.node[92].wlan.mac 	"number of retry for AC 2" 	0
scalar scenarioPRJP1.node[92].wlan.mac 	"number of retry for AC 3" 	0
scalar scenarioPRJP1.node[92].wlan.mac 	"sent and received bits" 	30965568
scalar scenarioPRJP1.node[92].wlan.mac 	"sent packet within AC 0" 	960
scalar scenarioPRJP1.node[92].wlan.mac 	"sent packet within AC 1" 	29
scalar scenarioPRJP1.node[92].wlan.mac 	"sent packet within AC 2" 	0
scalar scenarioPRJP1.node[92].wlan.mac 	"sent packet within AC 3" 	0
scalar scenarioPRJP1.node[92].wlan.mac 	"sent in TXOP " 	0
scalar scenarioPRJP1.node[92].wlan.mac 	"sentWithoutRetry AC 0" 	885
scalar scenarioPRJP1.node[92].wlan.mac 	"sentWithoutRetry AC 1" 	29
scalar scenarioPRJP1.node[92].wlan.mac 	"sentWithoutRetry AC 2" 	0
scalar scenarioPRJP1.node[92].wlan.mac 	"sentWithoutRetry AC 3" 	0
scalar scenarioPRJP1.node[92].wlan.mac 	"numGivenUp AC 0" 	486
scalar scenarioPRJP1.node[92].wlan.mac 	"numGivenUp AC 1" 	7
scalar scenarioPRJP1.node[92].wlan.mac 	"numGivenUp AC 2" 	0
scalar scenarioPRJP1.node[92].wlan.mac 	"numGivenUp AC 3" 	0
scalar scenarioPRJP1.node[92].wlan.mac 	"numDropped AC 0" 	0
scalar scenarioPRJP1.node[92].wlan.mac 	"numDropped AC 1" 	0
scalar scenarioPRJP1.node[92].wlan.mac 	"numDropped AC 2" 	0
scalar scenarioPRJP1.node[92].wlan.mac 	"numDropped AC 3" 	0
scalar scenarioPRJP1.node[92].wlan.mac 	rcvdPkFromLL:count 	62214
attr interpolationmode  none
attr source  packetReceivedFromLower
attr title  "packets received from lower layer, count"
scalar scenarioPRJP1.node[92].wlan.mac 	rcvdPkFromLL:sum(packetBytes) 	35975532
attr interpolationmode  none
attr source  packetReceivedFromLower
attr title  "packets received from lower layer, sum(packetBytes)"
scalar scenarioPRJP1.node[92].wlan.mac 	sentDownPk:count 	9976
attr interpolationmode  none
attr source  packetSentToLower
attr title  "packets sent to lower layer, count"
scalar scenarioPRJP1.node[92].wlan.mac 	sentDownPk:sum(packetBytes) 	5863726
attr interpolationmode  none
attr source  packetSentToLower
attr title  "packets sent to lower layer, sum(packetBytes)"
scalar scenarioPRJP1.node[92].wlan.mac 	rcvdPkFromHL:count 	4811
attr interpolationmode  none
attr source  packetReceivedFromUpper
attr title  "packets received from higher layer, count"
scalar scenarioPRJP1.node[92].wlan.mac 	rcvdPkFromHL:sum(packetBytes) 	4138988
attr interpolationmode  none
attr source  packetReceivedFromUpper
attr title  "packets received from higher layer, sum(packetBytes)"
scalar scenarioPRJP1.node[92].wlan.mac 	passedUpPk:count 	20354
attr interpolationmode  none
attr source  packetSentToUpper
attr title  "packets passed to higher layer, count"
scalar scenarioPRJP1.node[92].wlan.mac 	passedUpPk:sum(packetBytes) 	19988076
attr interpolationmode  none
attr source  packetSentToUpper
attr title  "packets passed to higher layer, sum(packetBytes)"
statistic scenarioPRJP1.node[92].wlan.radio 	radioChannel:histogram
field count 1
field mean 3
field stddev -nan
field sum 3
field sqrsum 9
field min 3
field max 3
attr interpolationmode  sample-hold
attr source  radioChannelChanged
attr title  "Radio channel, histogram"
bin	-INF	0
bin	2	0
bin	3	1
bin	4	0
scalar scenarioPRJP1.node[92].wlan.radio 	transmissionState:count 	39904
attr interpolationmode  sample-hold
attr source  transmissionStateChanged
attr title  "Radio transmission state, count"
scalar scenarioPRJP1.node[92].wlan.radio 	receptionState:count 	145795
attr interpolationmode  sample-hold
attr source  receptionStateChanged
attr title  "Radio reception state, count"
scalar scenarioPRJP1.node[92].wlan.radio 	radioMode:count 	19954
attr interpolationmode  sample-hold
attr source  radioModeChanged
attr title  "Radio mode, count"
statistic scenarioPRJP1.node[92].wlan.radio 	symbolErrorRate:histogram
field count 0
field mean -nan
field stddev -nan
field sum 0
field sqrsum 0
field min -nan
field max -nan
attr source  symbolErrorRate
attr title  "Symbol error rate, histogram"
bin	-INF	0
bin	-0.5	0
bin	-0.46666666666667	0
bin	-0.43333333333333	0
bin	-0.4	0
bin	-0.36666666666667	0
bin	-0.33333333333333	0
bin	-0.3	0
bin	-0.26666666666667	0
bin	-0.23333333333333	0
bin	-0.2	0
bin	-0.16666666666667	0
bin	-0.13333333333333	0
bin	-0.1	0
bin	-0.066666666666667	0
bin	-0.033333333333333	0
bin	-6.9388939039072e-18	0
bin	0.033333333333333	0
bin	0.066666666666667	0
bin	0.1	0
bin	0.13333333333333	0
bin	0.16666666666667	0
bin	0.2	0
bin	0.23333333333333	0
bin	0.26666666666667	0
bin	0.3	0
bin	0.33333333333333	0
bin	0.36666666666667	0
bin	0.4	0
bin	0.43333333333333	0
bin	0.46666666666667	0
bin	0.5	0
statistic scenarioPRJP1.node[92].wlan.radio 	bitErrorRate:histogram
field count 0
field mean -nan
field stddev -nan
field sum 0
field sqrsum 0
field min -nan
field max -nan
attr source  bitErrorRate
attr title  "Bit error rate, histogram"
bin	-INF	0
bin	-0.5	0
bin	-0.46666666666667	0
bin	-0.43333333333333	0
bin	-0.4	0
bin	-0.36666666666667	0
bin	-0.33333333333333	0
bin	-0.3	0
bin	-0.26666666666667	0
bin	-0.23333333333333	0
bin	-0.2	0
bin	-0.16666666666667	0
bin	-0.13333333333333	0
bin	-0.1	0
bin	-0.066666666666667	0
bin	-0.033333333333333	0
bin	-6.9388939039072e-18	0
bin	0.033333333333333	0
bin	0.066666666666667	0
bin	0.1	0
bin	0.13333333333333	0
bin	0.16666666666667	0
bin	0.2	0
bin	0.23333333333333	0
bin	0.26666666666667	0
bin	0.3	0
bin	0.33333333333333	0
bin	0.36666666666667	0
bin	0.4	0
bin	0.43333333333333	0
bin	0.46666666666667	0
bin	0.5	0
statistic scenarioPRJP1.node[92].wlan.radio 	packetErrorRate:histogram
field count 62214
field mean 0.12384757443777
field stddev 0.32173379146832
field sum 7705.0529960717
field sqrsum 7394.0835347159
field min 0
field max 1
attr source  packetErrorRate
attr title  "Packet error rate, histogram"
bin	-INF	0
bin	-0.17167533500814	0
bin	-0.14878529034038	0
bin	-0.12589524567263	0
bin	-0.10300520100488	0
bin	-0.08011515633713	0
bin	-0.057225111669379	0
bin	-0.034335067001627	0
bin	-0.011445022333876	52753
bin	0.011445022333876	521
bin	0.034335067001627	241
bin	0.057225111669379	139
bin	0.08011515633713	121
bin	0.10300520100488	88
bin	0.12589524567263	72
bin	0.14878529034038	84
bin	0.17167533500814	63
bin	0.19456537967589	54
bin	0.21745542434364	49
bin	0.24034546901139	46
bin	0.26323551367914	45
bin	0.28612555834689	46
bin	0.30901560301465	45
bin	0.3319056476824	37
bin	0.35479569235015	24
bin	0.3776857370179	37
bin	0.40057578168565	39
bin	0.4234658263534	31
bin	0.44635587102115	31
bin	0.46924591568891	40
bin	0.49213596035666	22
bin	0.51502600502441	7586
statistic scenarioPRJP1.node[92].wlan.radio 	minSNIR:histogram
field count 62214
field mean 6700.7566564566
field stddev 52419.074047947
field sum 416880874.62479
field sqrsum 1.7373976812235e+14
field min 0.00027803876142757
field max 753239.71923443
attr source  minSNIR
attr title  "Min SNIR, histogram"
bin	-INF	0
bin	-15495.545271899	0
bin	-13429.176232871	0
bin	-11362.807193843	0
bin	-9296.4381548154	0
bin	-7230.0691157875	0
bin	-5163.7000767597	0
bin	-3097.3310377318	0
bin	-1030.9619987039	52841
bin	1035.407040324	3450
bin	3101.7760793518	1291
bin	5168.1451183797	715
bin	7234.5141574076	526
bin	9300.8831964355	385
bin	11367.252235463	292
bin	13433.621274491	166
bin	15499.990313519	186
bin	17566.359352547	158
bin	19632.728391575	127
bin	21699.097430603	220
bin	23765.466469631	92
bin	25831.835508658	63
bin	27898.204547686	49
bin	29964.573586714	30
bin	32030.942625742	61
bin	34097.31166477	31
bin	36163.680703798	34
bin	38230.049742826	20
bin	40296.418781854	38
bin	42362.787820881	30
bin	44429.156859909	65
bin	46495.525898937	1344
scalar scenarioPRJP1.node[92].lo0.lo 	droppedPkBitError:count 	0
attr interpolationmode  none
attr source  dropPkBitError
attr title  "packets dropped/bit error, count"
scalar scenarioPRJP1.node[92].lo0.lo 	droppedPkBitError:sum(packetBytes) 	0
attr interpolationmode  none
attr source  dropPkBitError
attr title  "packets dropped/bit error, sum(packetBytes)"
scalar scenarioPRJP1.node[92].lo0.lo 	rcvdPkFromHL:count 	9
attr interpolationmode  none
attr source  packetReceivedFromUpper
attr title  "packets received from higher layer, count"
scalar scenarioPRJP1.node[92].lo0.lo 	rcvdPkFromHL:sum(packetBytes) 	504
attr interpolationmode  none
attr source  packetReceivedFromUpper
attr title  "packets received from higher layer, sum(packetBytes)"
scalar scenarioPRJP1.node[92].lo0.lo 	passedUpPk:count 	9
attr interpolationmode  none
attr source  packetSentToUpper
attr title  "packets passed to higher layer, count"
scalar scenarioPRJP1.node[92].lo0.lo 	passedUpPk:sum(packetBytes) 	504
attr interpolationmode  none
attr source  packetSentToUpper
attr title  "packets passed to higher layer, sum(packetBytes)"
