version 2
run OLSR-ETX-FS-100n-6-20150623-01:29:23-5953
attr configname OLSR-ETX-FS-100n
attr datetime 20150623-01:29:23
attr experiment OLSR-ETX-FS-100n
attr inifile omnetpp.ini
attr iterationvars ""
attr iterationvars2 $repetition=6
attr measurement ""
attr network Prj_Part1_propag.scenarioPRJP1
attr processid 5953
attr repetition 6
attr replication #6
attr resultdir results
attr runnumber 6
attr seedset 6

scalar scenarioPRJP1.node[60].app 	"Total sent" 	197
scalar scenarioPRJP1.node[60].app 	"Total received" 	30
scalar scenarioPRJP1.node[60].app 	"Total deleted" 	0
scalar scenarioPRJP1.node[60].app 	dropPk:count 	0
attr interpolationmode  none
attr source  dropPk
attr title  "packets dropped, count"
scalar scenarioPRJP1.node[60].app 	dropPk:sum(packetBytes) 	0
attr interpolationmode  none
attr source  dropPk
attr title  "packets dropped, sum(packetBytes)"
scalar scenarioPRJP1.node[60].app 	outOfOrderPk:count 	0
attr interpolationmode  none
attr source  outOfOrderPk
attr title  "packets received out of order, count"
scalar scenarioPRJP1.node[60].app 	outOfOrderPk:sum(packetBytes) 	0
attr interpolationmode  none
attr source  outOfOrderPk
attr title  "packets received out of order, sum(packetBytes)"
scalar scenarioPRJP1.node[60].app 	rcvdPk:count 	30
attr interpolationmode  none
attr source  rcvdPk
attr title  "packets received, count"
scalar scenarioPRJP1.node[60].app 	rcvdPk:sum(packetBytes) 	15360
attr interpolationmode  none
attr source  rcvdPk
attr title  "packets received, sum(packetBytes)"
statistic scenarioPRJP1.node[60].app 	endToEndDelay:histogram
field count 30
field mean 0.093035908291467
field stddev 0.37001756477574
field sum 2.791077248744
field sqrsum 4.230147355983
field min 0.000954170642
field max 2.0255834928
attr interpolationmode  none
attr source  messageAge(rcvdPk)
attr title  "delay, histogram"
attr unit  s
bin	-INF	0
bin	-1.011360490437	0
bin	-0.87638520229313	0
bin	-0.74140991414927	0
bin	-0.6064346260054	0
bin	-0.47145933786153	0
bin	-0.33648404971767	0
bin	-0.2015087615738	0
bin	-0.066533473429933	27
bin	0.068441814713934	1
bin	0.2034171028578	1
bin	0.33839239100167	0
bin	0.47336767914553	0
bin	0.6083429672894	0
bin	0.74331825543327	0
bin	0.87829354357713	0
bin	1.013268831721	0
bin	1.1482441198649	0
bin	1.2832194080087	0
bin	1.4181946961526	0
bin	1.5531699842965	0
bin	1.6881452724403	0
bin	1.8231205605842	0
bin	1.9580958487281	1
bin	2.0930711368719	0
bin	2.2280464250158	0
bin	2.3630217131597	0
bin	2.4979970013035	0
bin	2.6329722894474	0
bin	2.7679475775913	0
bin	2.9029228657351	0
bin	3.037898153879	0
scalar scenarioPRJP1.node[60].app 	sentPk:count 	197
attr interpolationmode  none
attr source  sentPk
attr title  "packets sent, count"
scalar scenarioPRJP1.node[60].app 	sentPk:sum(packetBytes) 	100864
attr interpolationmode  none
attr source  sentPk
attr title  "packets sent, sum(packetBytes)"
scalar scenarioPRJP1.node[60].udp 	droppedPkBadChecksum:count 	0
attr interpolationmode  none
attr title  "packets dropped (checksum error), count"
scalar scenarioPRJP1.node[60].udp 	droppedPkWrongPort:count 	0
attr interpolationmode  none
attr title  "packets dropped (wrong port), count"
scalar scenarioPRJP1.node[60].udp 	passedUpPk:count 	30
attr interpolationmode  none
attr title  "packets passed up, count"
scalar scenarioPRJP1.node[60].udp 	rcvdPk:count 	30
attr interpolationmode  none
attr source  rcvdPk
attr title  "packets received, count"
scalar scenarioPRJP1.node[60].udp 	rcvdPk:sum(packetBytes) 	15600
attr interpolationmode  none
attr source  rcvdPk
attr title  "packets received, sum(packetBytes)"
scalar scenarioPRJP1.node[60].udp 	sentPk:count 	197
attr interpolationmode  none
attr source  sentPk
attr title  "packets sent, count"
scalar scenarioPRJP1.node[60].udp 	sentPk:sum(packetBytes) 	102440
attr interpolationmode  none
attr source  sentPk
attr title  "packets sent, sum(packetBytes)"
scalar scenarioPRJP1.node[60].networkLayer.arp 	failedARPResolution:count 	2
attr title  "ARP failed resolutions, count"
scalar scenarioPRJP1.node[60].networkLayer.arp 	completedARPResolution:count 	127
attr title  "ARP completed resolutions, count"
scalar scenarioPRJP1.node[60].networkLayer.arp 	initiatedARPResolution:count 	11
attr title  "ARP initiated resolutions, count"
scalar scenarioPRJP1.node[60].networkLayer.arp 	sentReply:count 	14
attr title  "ARP replies sent, count"
scalar scenarioPRJP1.node[60].networkLayer.arp 	sentReq:count 	20
attr title  "ARP request sent, count"
scalar scenarioPRJP1.node[60].mobility 	startTime 	7.2
scalar scenarioPRJP1.node[60].mobility 	totalTime 	91.9
scalar scenarioPRJP1.node[60].mobility 	stopTime 	99.2
scalar scenarioPRJP1.node[60].mobility 	minSpeed 	0.27919283853192
scalar scenarioPRJP1.node[60].mobility 	maxSpeed 	20.619499239538
scalar scenarioPRJP1.node[60].mobility 	totalDistance 	1483.597504718
scalar scenarioPRJP1.node[60].mobility 	totalCO2Emission 	397.19925684256
scalar scenarioPRJP1.node[60].wlan.mgmt 	dataQueueLen:max 	0
attr interpolationmode  sample-hold
attr title  "data queue length, max"
scalar scenarioPRJP1.node[60].wlan.mgmt 	dataQueueLen:timeavg 	0
attr interpolationmode  sample-hold
attr title  "data queue length, timeavg"
scalar scenarioPRJP1.node[60].wlan.mgmt 	dropPkByQueue:count 	0
attr interpolationmode  none
attr source  dropPkByQueue
attr title  "packets dropped by queue, count"
scalar scenarioPRJP1.node[60].wlan.mgmt 	dropPkByQueue:sum(packetBytes) 	0
attr interpolationmode  none
attr source  dropPkByQueue
attr title  "packets dropped by queue, sum(packetBytes)"
scalar scenarioPRJP1.node[60].wlan.mac 	"number of received packets" 	147
scalar scenarioPRJP1.node[60].wlan.mac 	"number of collisions" 	1466
scalar scenarioPRJP1.node[60].wlan.mac 	"number of internal collisions" 	1
scalar scenarioPRJP1.node[60].wlan.mac 	"number of retry for AC 0" 	510
scalar scenarioPRJP1.node[60].wlan.mac 	"number of retry for AC 1" 	9
scalar scenarioPRJP1.node[60].wlan.mac 	"number of retry for AC 2" 	0
scalar scenarioPRJP1.node[60].wlan.mac 	"number of retry for AC 3" 	0
scalar scenarioPRJP1.node[60].wlan.mac 	"sent and received bits" 	3284096
scalar scenarioPRJP1.node[60].wlan.mac 	"sent packet within AC 0" 	97
scalar scenarioPRJP1.node[60].wlan.mac 	"sent packet within AC 1" 	7
scalar scenarioPRJP1.node[60].wlan.mac 	"sent packet within AC 2" 	0
scalar scenarioPRJP1.node[60].wlan.mac 	"sent packet within AC 3" 	0
scalar scenarioPRJP1.node[60].wlan.mac 	"sent in TXOP " 	0
scalar scenarioPRJP1.node[60].wlan.mac 	"sentWithoutRetry AC 0" 	72
scalar scenarioPRJP1.node[60].wlan.mac 	"sentWithoutRetry AC 1" 	6
scalar scenarioPRJP1.node[60].wlan.mac 	"sentWithoutRetry AC 2" 	0
scalar scenarioPRJP1.node[60].wlan.mac 	"sentWithoutRetry AC 3" 	0
scalar scenarioPRJP1.node[60].wlan.mac 	"numGivenUp AC 0" 	73
scalar scenarioPRJP1.node[60].wlan.mac 	"numGivenUp AC 1" 	1
scalar scenarioPRJP1.node[60].wlan.mac 	"numGivenUp AC 2" 	0
scalar scenarioPRJP1.node[60].wlan.mac 	"numGivenUp AC 3" 	0
scalar scenarioPRJP1.node[60].wlan.mac 	"numDropped AC 0" 	0
scalar scenarioPRJP1.node[60].wlan.mac 	"numDropped AC 1" 	0
scalar scenarioPRJP1.node[60].wlan.mac 	"numDropped AC 2" 	0
scalar scenarioPRJP1.node[60].wlan.mac 	"numDropped AC 3" 	0
scalar scenarioPRJP1.node[60].wlan.mac 	rcvdPkFromLL:count 	6478
attr interpolationmode  none
attr source  packetReceivedFromLower
attr title  "packets received from lower layer, count"
scalar scenarioPRJP1.node[60].wlan.mac 	rcvdPkFromLL:sum(packetBytes) 	4279542
attr interpolationmode  none
attr source  packetReceivedFromLower
attr title  "packets received from lower layer, sum(packetBytes)"
scalar scenarioPRJP1.node[60].wlan.mac 	sentDownPk:count 	1215
attr interpolationmode  none
attr source  packetSentToLower
attr title  "packets sent to lower layer, count"
scalar scenarioPRJP1.node[60].wlan.mac 	sentDownPk:sum(packetBytes) 	739506
attr interpolationmode  none
attr source  packetSentToLower
attr title  "packets sent to lower layer, sum(packetBytes)"
scalar scenarioPRJP1.node[60].wlan.mac 	rcvdPkFromHL:count 	550
attr interpolationmode  none
attr source  packetReceivedFromUpper
attr title  "packets received from higher layer, count"
scalar scenarioPRJP1.node[60].wlan.mac 	rcvdPkFromHL:sum(packetBytes) 	452140
attr interpolationmode  none
attr source  packetReceivedFromUpper
attr title  "packets received from higher layer, sum(packetBytes)"
scalar scenarioPRJP1.node[60].wlan.mac 	passedUpPk:count 	2644
attr interpolationmode  none
attr source  packetSentToUpper
attr title  "packets passed to higher layer, count"
scalar scenarioPRJP1.node[60].wlan.mac 	passedUpPk:sum(packetBytes) 	2503568
attr interpolationmode  none
attr source  packetSentToUpper
attr title  "packets passed to higher layer, sum(packetBytes)"
statistic scenarioPRJP1.node[60].wlan.radio 	radioChannel:histogram
field count 1
field mean 3
field stddev -nan
field sum 3
field sqrsum 9
field min 3
field max 3
attr interpolationmode  sample-hold
attr source  radioChannelChanged
attr title  "Radio channel, histogram"
bin	-INF	0
bin	2	0
bin	3	1
bin	4	0
scalar scenarioPRJP1.node[60].wlan.radio 	transmissionState:count 	4860
attr interpolationmode  sample-hold
attr source  transmissionStateChanged
attr title  "Radio transmission state, count"
scalar scenarioPRJP1.node[60].wlan.radio 	receptionState:count 	25920
attr interpolationmode  sample-hold
attr source  receptionStateChanged
attr title  "Radio reception state, count"
scalar scenarioPRJP1.node[60].wlan.radio 	radioMode:count 	2432
attr interpolationmode  sample-hold
attr source  radioModeChanged
attr title  "Radio mode, count"
statistic scenarioPRJP1.node[60].wlan.radio 	symbolErrorRate:histogram
field count 0
field mean -nan
field stddev -nan
field sum 0
field sqrsum 0
field min -nan
field max -nan
attr source  symbolErrorRate
attr title  "Symbol error rate, histogram"
bin	-INF	0
bin	-0.5	0
bin	-0.46666666666667	0
bin	-0.43333333333333	0
bin	-0.4	0
bin	-0.36666666666667	0
bin	-0.33333333333333	0
bin	-0.3	0
bin	-0.26666666666667	0
bin	-0.23333333333333	0
bin	-0.2	0
bin	-0.16666666666667	0
bin	-0.13333333333333	0
bin	-0.1	0
bin	-0.066666666666667	0
bin	-0.033333333333333	0
bin	0	0
bin	0.033333333333333	0
bin	0.066666666666667	0
bin	0.1	0
bin	0.13333333333333	0
bin	0.16666666666667	0
bin	0.2	0
bin	0.23333333333333	0
bin	0.26666666666667	0
bin	0.3	0
bin	0.33333333333333	0
bin	0.36666666666667	0
bin	0.4	0
bin	0.43333333333333	0
bin	0.46666666666667	0
bin	0.5	0
statistic scenarioPRJP1.node[60].wlan.radio 	bitErrorRate:histogram
field count 0
field mean -nan
field stddev -nan
field sum 0
field sqrsum 0
field min -nan
field max -nan
attr source  bitErrorRate
attr title  "Bit error rate, histogram"
bin	-INF	0
bin	-0.5	0
bin	-0.46666666666667	0
bin	-0.43333333333333	0
bin	-0.4	0
bin	-0.36666666666667	0
bin	-0.33333333333333	0
bin	-0.3	0
bin	-0.26666666666667	0
bin	-0.23333333333333	0
bin	-0.2	0
bin	-0.16666666666667	0
bin	-0.13333333333333	0
bin	-0.1	0
bin	-0.066666666666667	0
bin	-0.033333333333333	0
bin	0	0
bin	0.033333333333333	0
bin	0.066666666666667	0
bin	0.1	0
bin	0.13333333333333	0
bin	0.16666666666667	0
bin	0.2	0
bin	0.23333333333333	0
bin	0.26666666666667	0
bin	0.3	0
bin	0.33333333333333	0
bin	0.36666666666667	0
bin	0.4	0
bin	0.43333333333333	0
bin	0.46666666666667	0
bin	0.5	0
statistic scenarioPRJP1.node[60].wlan.radio 	packetErrorRate:histogram
field count 6478
field mean 0.2081818242366
field stddev 0.39285146122499
field sum 1348.6018574047
field sqrsum 1280.3645114328
field min 0
field max 1
attr source  packetErrorRate
attr title  "Packet error rate, histogram"
bin	-INF	0
bin	-0.5	0
bin	-0.43333333333333	0
bin	-0.36666666666667	0
bin	-0.3	0
bin	-0.23333333333333	0
bin	-0.16666666666667	0
bin	-0.1	0
bin	-0.033333333333333	4835
bin	0.033333333333333	124
bin	0.1	59
bin	0.16666666666667	35
bin	0.23333333333333	44
bin	0.3	23
bin	0.36666666666667	18
bin	0.43333333333333	14
bin	0.5	14
bin	0.56666666666667	17
bin	0.63333333333333	19
bin	0.7	15
bin	0.76666666666667	23
bin	0.83333333333333	30
bin	0.9	43
bin	0.96666666666667	1165
bin	1.0333333333333	0
bin	1.1	0
bin	1.1666666666667	0
bin	1.2333333333333	0
bin	1.3	0
bin	1.3666666666667	0
bin	1.4333333333333	0
bin	1.5	0
statistic scenarioPRJP1.node[60].wlan.radio 	minSNIR:histogram
field count 6478
field mean 1401.6643576354
field stddev 17256.608605024
field sum 9079981.7087622
field sqrsum 1941516417851.9
field min 0.0071439811817061
field max 859477.32763018
attr source  minSNIR
attr title  "Min SNIR, histogram"
bin	-INF	0
bin	-64081.736331065	0
bin	-55537.481877968	0
bin	-46993.22742487	0
bin	-38448.972971773	0
bin	-29904.718518675	0
bin	-21360.464065578	0
bin	-12816.20961248	0
bin	-4271.9551593829	6282
bin	4272.2992937146	85
bin	12816.553746812	37
bin	21360.80819991	12
bin	29905.062653007	8
bin	38449.317106105	15
bin	46993.571559202	6
bin	55537.8260123	5
bin	64082.080465397	2
bin	72626.334918495	0
bin	81170.589371592	3
bin	89714.84382469	2
bin	98259.098277787	5
bin	106803.35273088	1
bin	115347.60718398	3
bin	123891.86163708	2
bin	132436.11609018	4
bin	140980.37054327	0
bin	149524.62499637	2
bin	158068.87944947	0
bin	166613.13390257	1
bin	175157.38835566	0
bin	183701.64280876	1
bin	192245.89726186	2
scalar scenarioPRJP1.node[60].lo0.lo 	droppedPkBitError:count 	0
attr interpolationmode  none
attr source  dropPkBitError
attr title  "packets dropped/bit error, count"
scalar scenarioPRJP1.node[60].lo0.lo 	droppedPkBitError:sum(packetBytes) 	0
attr interpolationmode  none
attr source  dropPkBitError
attr title  "packets dropped/bit error, sum(packetBytes)"
scalar scenarioPRJP1.node[60].lo0.lo 	rcvdPkFromHL:count 	1
attr interpolationmode  none
attr source  packetReceivedFromUpper
attr title  "packets received from higher layer, count"
scalar scenarioPRJP1.node[60].lo0.lo 	rcvdPkFromHL:sum(packetBytes) 	56
attr interpolationmode  none
attr source  packetReceivedFromUpper
attr title  "packets received from higher layer, sum(packetBytes)"
scalar scenarioPRJP1.node[60].lo0.lo 	passedUpPk:count 	1
attr interpolationmode  none
attr source  packetSentToUpper
attr title  "packets passed to higher layer, count"
scalar scenarioPRJP1.node[60].lo0.lo 	passedUpPk:sum(packetBytes) 	56
attr interpolationmode  none
attr source  packetSentToUpper
attr title  "packets passed to higher layer, sum(packetBytes)"
scalar scenarioPRJP1.node[91].app 	"Total sent" 	369
scalar scenarioPRJP1.node[91].app 	"Total received" 	24
scalar scenarioPRJP1.node[91].app 	"Total deleted" 	0
scalar scenarioPRJP1.node[91].app 	dropPk:count 	0
attr interpolationmode  none
attr source  dropPk
attr title  "packets dropped, count"
scalar scenarioPRJP1.node[91].app 	dropPk:sum(packetBytes) 	0
attr interpolationmode  none
attr source  dropPk
attr title  "packets dropped, sum(packetBytes)"
scalar scenarioPRJP1.node[91].app 	outOfOrderPk:count 	0
attr interpolationmode  none
attr source  outOfOrderPk
attr title  "packets received out of order, count"
scalar scenarioPRJP1.node[91].app 	outOfOrderPk:sum(packetBytes) 	0
attr interpolationmode  none
attr source  outOfOrderPk
attr title  "packets received out of order, sum(packetBytes)"
scalar scenarioPRJP1.node[91].app 	rcvdPk:count 	24
attr interpolationmode  none
attr source  rcvdPk
attr title  "packets received, count"
scalar scenarioPRJP1.node[91].app 	rcvdPk:sum(packetBytes) 	12288
attr interpolationmode  none
attr source  rcvdPk
attr title  "packets received, sum(packetBytes)"
statistic scenarioPRJP1.node[91].app 	endToEndDelay:histogram
field count 24
field mean 0.18693773784596
field stddev 0.45656161367192
field sum 4.486505708303
field sqrsum 5.6330128907534
field min 0.000891025232
field max 1.874415688963
attr interpolationmode  none
attr source  messageAge(rcvdPk)
attr title  "delay, histogram"
attr unit  s
bin	-INF	0
bin	-0.9358713066335	0
bin	-0.81096966238477	0
bin	-0.68606801813603	0
bin	-0.5611663738873	0
bin	-0.43626472963857	0
bin	-0.31136308538983	0
bin	-0.1864614411411	0
bin	-0.061559796892367	18
bin	0.063341847356367	3
bin	0.1882434916051	0
bin	0.31314513585383	0
bin	0.43804678010257	0
bin	0.5629484243513	0
bin	0.68785006860003	0
bin	0.81275171284877	0
bin	0.9376533570975	2
bin	1.0625550013462	0
bin	1.187456645595	0
bin	1.3123582898437	0
bin	1.4372599340924	0
bin	1.5621615783412	0
bin	1.6870632225899	0
bin	1.8119648668386	1
bin	1.9368665110874	0
bin	2.0617681553361	0
bin	2.1866697995848	0
bin	2.3115714438336	0
bin	2.4364730880823	0
bin	2.561374732331	0
bin	2.6862763765798	0
bin	2.8111780208285	0
scalar scenarioPRJP1.node[91].app 	sentPk:count 	369
attr interpolationmode  none
attr source  sentPk
attr title  "packets sent, count"
scalar scenarioPRJP1.node[91].app 	sentPk:sum(packetBytes) 	188928
attr interpolationmode  none
attr source  sentPk
attr title  "packets sent, sum(packetBytes)"
scalar scenarioPRJP1.node[91].udp 	droppedPkBadChecksum:count 	0
attr interpolationmode  none
attr title  "packets dropped (checksum error), count"
scalar scenarioPRJP1.node[91].udp 	droppedPkWrongPort:count 	0
attr interpolationmode  none
attr title  "packets dropped (wrong port), count"
scalar scenarioPRJP1.node[91].udp 	passedUpPk:count 	24
attr interpolationmode  none
attr title  "packets passed up, count"
scalar scenarioPRJP1.node[91].udp 	rcvdPk:count 	24
attr interpolationmode  none
attr source  rcvdPk
attr title  "packets received, count"
scalar scenarioPRJP1.node[91].udp 	rcvdPk:sum(packetBytes) 	12480
attr interpolationmode  none
attr source  rcvdPk
attr title  "packets received, sum(packetBytes)"
scalar scenarioPRJP1.node[91].udp 	sentPk:count 	369
attr interpolationmode  none
attr source  sentPk
attr title  "packets sent, count"
scalar scenarioPRJP1.node[91].udp 	sentPk:sum(packetBytes) 	191880
attr interpolationmode  none
attr source  sentPk
attr title  "packets sent, sum(packetBytes)"
scalar scenarioPRJP1.node[91].networkLayer.arp 	failedARPResolution:count 	3
attr title  "ARP failed resolutions, count"
scalar scenarioPRJP1.node[91].networkLayer.arp 	completedARPResolution:count 	109
attr title  "ARP completed resolutions, count"
scalar scenarioPRJP1.node[91].networkLayer.arp 	initiatedARPResolution:count 	16
attr title  "ARP initiated resolutions, count"
scalar scenarioPRJP1.node[91].networkLayer.arp 	sentReply:count 	7
attr title  "ARP replies sent, count"
scalar scenarioPRJP1.node[91].networkLayer.arp 	sentReq:count 	29
attr title  "ARP request sent, count"
scalar scenarioPRJP1.node[91].mobility 	startTime 	9.7
scalar scenarioPRJP1.node[91].mobility 	totalTime 	150.3
scalar scenarioPRJP1.node[91].mobility 	stopTime 	160.1
scalar scenarioPRJP1.node[91].mobility 	minSpeed 	2.4763845580076e-13
scalar scenarioPRJP1.node[91].mobility 	maxSpeed 	18.153825426065
scalar scenarioPRJP1.node[91].mobility 	totalDistance 	1484.9378405989
scalar scenarioPRJP1.node[91].mobility 	totalCO2Emission 	450.8579681431
scalar scenarioPRJP1.node[91].wlan.mgmt 	dataQueueLen:max 	0
attr interpolationmode  sample-hold
attr title  "data queue length, max"
scalar scenarioPRJP1.node[91].wlan.mgmt 	dataQueueLen:timeavg 	0
attr interpolationmode  sample-hold
attr title  "data queue length, timeavg"
scalar scenarioPRJP1.node[91].wlan.mgmt 	dropPkByQueue:count 	0
attr interpolationmode  none
attr source  dropPkByQueue
attr title  "packets dropped by queue, count"
scalar scenarioPRJP1.node[91].wlan.mgmt 	dropPkByQueue:sum(packetBytes) 	0
attr interpolationmode  none
attr source  dropPkByQueue
attr title  "packets dropped by queue, sum(packetBytes)"
scalar scenarioPRJP1.node[91].wlan.mac 	"number of received packets" 	174
scalar scenarioPRJP1.node[91].wlan.mac 	"number of collisions" 	2238
scalar scenarioPRJP1.node[91].wlan.mac 	"number of internal collisions" 	0
scalar scenarioPRJP1.node[91].wlan.mac 	"number of retry for AC 0" 	771
scalar scenarioPRJP1.node[91].wlan.mac 	"number of retry for AC 1" 	0
scalar scenarioPRJP1.node[91].wlan.mac 	"number of retry for AC 2" 	0
scalar scenarioPRJP1.node[91].wlan.mac 	"number of retry for AC 3" 	0
scalar scenarioPRJP1.node[91].wlan.mac 	"sent and received bits" 	5026080
scalar scenarioPRJP1.node[91].wlan.mac 	"sent packet within AC 0" 	120
scalar scenarioPRJP1.node[91].wlan.mac 	"sent packet within AC 1" 	2
scalar scenarioPRJP1.node[91].wlan.mac 	"sent packet within AC 2" 	0
scalar scenarioPRJP1.node[91].wlan.mac 	"sent packet within AC 3" 	0
scalar scenarioPRJP1.node[91].wlan.mac 	"sent in TXOP " 	0
scalar scenarioPRJP1.node[91].wlan.mac 	"sentWithoutRetry AC 0" 	89
scalar scenarioPRJP1.node[91].wlan.mac 	"sentWithoutRetry AC 1" 	2
scalar scenarioPRJP1.node[91].wlan.mac 	"sentWithoutRetry AC 2" 	0
scalar scenarioPRJP1.node[91].wlan.mac 	"sentWithoutRetry AC 3" 	0
scalar scenarioPRJP1.node[91].wlan.mac 	"numGivenUp AC 0" 	115
scalar scenarioPRJP1.node[91].wlan.mac 	"numGivenUp AC 1" 	0
scalar scenarioPRJP1.node[91].wlan.mac 	"numGivenUp AC 2" 	0
scalar scenarioPRJP1.node[91].wlan.mac 	"numGivenUp AC 3" 	0
scalar scenarioPRJP1.node[91].wlan.mac 	"numDropped AC 0" 	0
scalar scenarioPRJP1.node[91].wlan.mac 	"numDropped AC 1" 	0
scalar scenarioPRJP1.node[91].wlan.mac 	"numDropped AC 2" 	0
scalar scenarioPRJP1.node[91].wlan.mac 	"numDropped AC 3" 	0
scalar scenarioPRJP1.node[91].wlan.mac 	rcvdPkFromLL:count 	9935
attr interpolationmode  none
attr source  packetReceivedFromLower
attr title  "packets received from lower layer, count"
scalar scenarioPRJP1.node[91].wlan.mac 	rcvdPkFromLL:sum(packetBytes) 	6587098
attr interpolationmode  none
attr source  packetReceivedFromLower
attr title  "packets received from lower layer, sum(packetBytes)"
scalar scenarioPRJP1.node[91].wlan.mac 	sentDownPk:count 	1751
attr interpolationmode  none
attr source  packetSentToLower
attr title  "packets sent to lower layer, count"
scalar scenarioPRJP1.node[91].wlan.mac 	sentDownPk:sum(packetBytes) 	1130280
attr interpolationmode  none
attr source  packetSentToLower
attr title  "packets sent to lower layer, sum(packetBytes)"
scalar scenarioPRJP1.node[91].wlan.mac 	rcvdPkFromHL:count 	806
attr interpolationmode  none
attr source  packetReceivedFromUpper
attr title  "packets received from higher layer, count"
scalar scenarioPRJP1.node[91].wlan.mac 	rcvdPkFromHL:sum(packetBytes) 	693476
attr interpolationmode  none
attr source  packetReceivedFromUpper
attr title  "packets received from higher layer, sum(packetBytes)"
scalar scenarioPRJP1.node[91].wlan.mac 	passedUpPk:count 	3689
attr interpolationmode  none
attr source  packetSentToUpper
attr title  "packets passed to higher layer, count"
scalar scenarioPRJP1.node[91].wlan.mac 	passedUpPk:sum(packetBytes) 	3544584
attr interpolationmode  none
attr source  packetSentToUpper
attr title  "packets passed to higher layer, sum(packetBytes)"
statistic scenarioPRJP1.node[91].wlan.radio 	radioChannel:histogram
field count 1
field mean 3
field stddev -nan
field sum 3
field sqrsum 9
field min 3
field max 3
attr interpolationmode  sample-hold
attr source  radioChannelChanged
attr title  "Radio channel, histogram"
bin	-INF	0
bin	2	0
bin	3	1
bin	4	0
scalar scenarioPRJP1.node[91].wlan.radio 	transmissionState:count 	7004
attr interpolationmode  sample-hold
attr source  transmissionStateChanged
attr title  "Radio transmission state, count"
scalar scenarioPRJP1.node[91].wlan.radio 	receptionState:count 	48011
attr interpolationmode  sample-hold
attr source  receptionStateChanged
attr title  "Radio reception state, count"
scalar scenarioPRJP1.node[91].wlan.radio 	radioMode:count 	3504
attr interpolationmode  sample-hold
attr source  radioModeChanged
attr title  "Radio mode, count"
statistic scenarioPRJP1.node[91].wlan.radio 	symbolErrorRate:histogram
field count 0
field mean -nan
field stddev -nan
field sum 0
field sqrsum 0
field min -nan
field max -nan
attr source  symbolErrorRate
attr title  "Symbol error rate, histogram"
bin	-INF	0
bin	-0.5	0
bin	-0.46666666666667	0
bin	-0.43333333333333	0
bin	-0.4	0
bin	-0.36666666666667	0
bin	-0.33333333333333	0
bin	-0.3	0
bin	-0.26666666666667	0
bin	-0.23333333333333	0
bin	-0.2	0
bin	-0.16666666666667	0
bin	-0.13333333333333	0
bin	-0.1	0
bin	-0.066666666666667	0
bin	-0.033333333333333	0
bin	0	0
bin	0.033333333333333	0
bin	0.066666666666667	0
bin	0.1	0
bin	0.13333333333333	0
bin	0.16666666666667	0
bin	0.2	0
bin	0.23333333333333	0
bin	0.26666666666667	0
bin	0.3	0
bin	0.33333333333333	0
bin	0.36666666666667	0
bin	0.4	0
bin	0.43333333333333	0
bin	0.46666666666667	0
bin	0.5	0
statistic scenarioPRJP1.node[91].wlan.radio 	bitErrorRate:histogram
field count 0
field mean -nan
field stddev -nan
field sum 0
field sqrsum 0
field min -nan
field max -nan
attr source  bitErrorRate
attr title  "Bit error rate, histogram"
bin	-INF	0
bin	-0.5	0
bin	-0.46666666666667	0
bin	-0.43333333333333	0
bin	-0.4	0
bin	-0.36666666666667	0
bin	-0.33333333333333	0
bin	-0.3	0
bin	-0.26666666666667	0
bin	-0.23333333333333	0
bin	-0.2	0
bin	-0.16666666666667	0
bin	-0.13333333333333	0
bin	-0.1	0
bin	-0.066666666666667	0
bin	-0.033333333333333	0
bin	0	0
bin	0.033333333333333	0
bin	0.066666666666667	0
bin	0.1	0
bin	0.13333333333333	0
bin	0.16666666666667	0
bin	0.2	0
bin	0.23333333333333	0
bin	0.26666666666667	0
bin	0.3	0
bin	0.33333333333333	0
bin	0.36666666666667	0
bin	0.4	0
bin	0.43333333333333	0
bin	0.46666666666667	0
bin	0.5	0
statistic scenarioPRJP1.node[91].wlan.radio 	packetErrorRate:histogram
field count 9935
field mean 0.20783132817004
field stddev 0.39348154314811
field sum 2064.8042453693
field sqrsum 1967.1896268717
field min 0
field max 1
attr source  packetErrorRate
attr title  "Packet error rate, histogram"
bin	-INF	2166
bin	-8.1690565423287e-10	0
bin	-7.0798490033515e-10	0
bin	-5.9906414643744e-10	0
bin	-4.9014339253972e-10	0
bin	-3.8122263864201e-10	0
bin	-2.7230188474429e-10	0
bin	-1.6338113084657e-10	0
bin	-5.4460376948858e-11	5517
bin	5.4460376948858e-11	60
bin	1.6338113084657e-10	42
bin	2.7230188474429e-10	28
bin	3.8122263864201e-10	11
bin	4.9014339253972e-10	11
bin	5.9906414643744e-10	14
bin	7.0798490033515e-10	8
bin	8.1690565423287e-10	5
bin	9.2582640813058e-10	7
bin	1.0347471620283e-09	7
bin	1.143667915926e-09	5
bin	1.2525886698237e-09	5
bin	1.3615094237214e-09	6
bin	1.4704301776192e-09	7
bin	1.5793509315169e-09	7
bin	1.6882716854146e-09	3
bin	1.7971924393123e-09	1
bin	1.90611319321e-09	3
bin	2.0150339471077e-09	2
bin	2.1239547010055e-09	4
bin	2.2328754549032e-09	1
bin	2.3417962088009e-09	4
bin	2.4507169626986e-09	2011
statistic scenarioPRJP1.node[91].wlan.radio 	minSNIR:histogram
field count 9935
field mean 6356.5663223468
field stddev 93734.214548695
field sum 63152486.412516
field sqrsum 87682579942424
field min 0.0327727094267
field max 3012958.8715274
attr source  minSNIR
attr title  "Min SNIR, histogram"
bin	-INF	0
bin	-28077.549905764	0
bin	-24333.127335354	0
bin	-20588.704764944	0
bin	-16844.282194534	0
bin	-13099.859624124	0
bin	-9355.4370537134	0
bin	-5611.0144833032	0
bin	-1866.5919128931	8725
bin	1877.8306575171	772
bin	5622.2532279273	164
bin	9366.6757983375	97
bin	13111.098368748	35
bin	16855.520939158	22
bin	20599.943509568	19
bin	24344.366079978	10
bin	28088.788650388	3
bin	31833.211220799	1
bin	35577.633791209	3
bin	39322.056361619	3
bin	43066.478932029	1
bin	46810.901502439	1
bin	50555.324072849	0
bin	54299.74664326	4
bin	58044.16921367	3
bin	61788.59178408	0
bin	65533.01435449	1
bin	69277.4369249	0
bin	73021.85949531	0
bin	76766.282065721	0
bin	80510.704636131	0
bin	84255.127206541	71
scalar scenarioPRJP1.node[91].lo0.lo 	droppedPkBitError:count 	0
attr interpolationmode  none
attr source  dropPkBitError
attr title  "packets dropped/bit error, count"
scalar scenarioPRJP1.node[91].lo0.lo 	droppedPkBitError:sum(packetBytes) 	0
attr interpolationmode  none
attr source  dropPkBitError
attr title  "packets dropped/bit error, sum(packetBytes)"
scalar scenarioPRJP1.node[91].lo0.lo 	rcvdPkFromHL:count 	1
attr interpolationmode  none
attr source  packetReceivedFromUpper
attr title  "packets received from higher layer, count"
scalar scenarioPRJP1.node[91].lo0.lo 	rcvdPkFromHL:sum(packetBytes) 	56
attr interpolationmode  none
attr source  packetReceivedFromUpper
attr title  "packets received from higher layer, sum(packetBytes)"
scalar scenarioPRJP1.node[91].lo0.lo 	passedUpPk:count 	1
attr interpolationmode  none
attr source  packetSentToUpper
attr title  "packets passed to higher layer, count"
scalar scenarioPRJP1.node[91].lo0.lo 	passedUpPk:sum(packetBytes) 	56
attr interpolationmode  none
attr source  packetSentToUpper
attr title  "packets passed to higher layer, sum(packetBytes)"
scalar scenarioPRJP1.node[50].app 	"Total sent" 	367
scalar scenarioPRJP1.node[50].app 	"Total received" 	30
scalar scenarioPRJP1.node[50].app 	"Total deleted" 	0
scalar scenarioPRJP1.node[50].app 	dropPk:count 	0
attr interpolationmode  none
attr source  dropPk
attr title  "packets dropped, count"
scalar scenarioPRJP1.node[50].app 	dropPk:sum(packetBytes) 	0
attr interpolationmode  none
attr source  dropPk
attr title  "packets dropped, sum(packetBytes)"
scalar scenarioPRJP1.node[50].app 	outOfOrderPk:count 	0
attr interpolationmode  none
attr source  outOfOrderPk
attr title  "packets received out of order, count"
scalar scenarioPRJP1.node[50].app 	outOfOrderPk:sum(packetBytes) 	0
attr interpolationmode  none
attr source  outOfOrderPk
attr title  "packets received out of order, sum(packetBytes)"
scalar scenarioPRJP1.node[50].app 	rcvdPk:count 	30
attr interpolationmode  none
attr source  rcvdPk
attr title  "packets received, count"
scalar scenarioPRJP1.node[50].app 	rcvdPk:sum(packetBytes) 	15360
attr interpolationmode  none
attr source  rcvdPk
attr title  "packets received, sum(packetBytes)"
statistic scenarioPRJP1.node[50].app 	endToEndDelay:histogram
field count 30
field mean 0.1647855391111
field stddev 0.33400104967498
field sum 4.943566173333
field sqrsum 4.0497725513397
field min 0.000981568659
field max 1.034388995512
attr interpolationmode  none
attr source  messageAge(rcvdPk)
attr title  "delay, histogram"
attr unit  s
bin	-INF	0
bin	-0.5157221447675	0
bin	-0.44682831631063	0
bin	-0.37793448785377	0
bin	-0.3090406593969	0
bin	-0.24014683094003	0
bin	-0.17125300248317	0
bin	-0.1023591740263	0
bin	-0.033465345569433	18
bin	0.035428482887433	6
bin	0.1043223113443	1
bin	0.17321613980117	0
bin	0.24210996825803	0
bin	0.3110037967149	0
bin	0.37989762517177	0
bin	0.44879145362863	0
bin	0.5176852820855	1
bin	0.58657911054237	0
bin	0.65547293899923	0
bin	0.7243667674561	1
bin	0.79326059591297	0
bin	0.86215442436983	0
bin	0.9310482528267	0
bin	0.99994208128357	3
bin	1.0688359097404	0
bin	1.1377297381973	0
bin	1.2066235666542	0
bin	1.275517395111	0
bin	1.3444112235679	0
bin	1.4133050520248	0
bin	1.4821988804816	0
bin	1.5510927089385	0
scalar scenarioPRJP1.node[50].app 	sentPk:count 	367
attr interpolationmode  none
attr source  sentPk
attr title  "packets sent, count"
scalar scenarioPRJP1.node[50].app 	sentPk:sum(packetBytes) 	187904
attr interpolationmode  none
attr source  sentPk
attr title  "packets sent, sum(packetBytes)"
scalar scenarioPRJP1.node[50].udp 	droppedPkBadChecksum:count 	0
attr interpolationmode  none
attr title  "packets dropped (checksum error), count"
scalar scenarioPRJP1.node[50].udp 	droppedPkWrongPort:count 	0
attr interpolationmode  none
attr title  "packets dropped (wrong port), count"
scalar scenarioPRJP1.node[50].udp 	passedUpPk:count 	30
attr interpolationmode  none
attr title  "packets passed up, count"
scalar scenarioPRJP1.node[50].udp 	rcvdPk:count 	30
attr interpolationmode  none
attr source  rcvdPk
attr title  "packets received, count"
scalar scenarioPRJP1.node[50].udp 	rcvdPk:sum(packetBytes) 	15600
attr interpolationmode  none
attr source  rcvdPk
attr title  "packets received, sum(packetBytes)"
scalar scenarioPRJP1.node[50].udp 	sentPk:count 	367
attr interpolationmode  none
attr source  sentPk
attr title  "packets sent, count"
scalar scenarioPRJP1.node[50].udp 	sentPk:sum(packetBytes) 	190840
attr interpolationmode  none
attr source  sentPk
attr title  "packets sent, sum(packetBytes)"
scalar scenarioPRJP1.node[50].networkLayer.arp 	failedARPResolution:count 	5
attr title  "ARP failed resolutions, count"
scalar scenarioPRJP1.node[50].networkLayer.arp 	completedARPResolution:count 	96
attr title  "ARP completed resolutions, count"
scalar scenarioPRJP1.node[50].networkLayer.arp 	initiatedARPResolution:count 	18
attr title  "ARP initiated resolutions, count"
scalar scenarioPRJP1.node[50].networkLayer.arp 	sentReply:count 	15
attr title  "ARP replies sent, count"
scalar scenarioPRJP1.node[50].networkLayer.arp 	sentReq:count 	30
attr title  "ARP request sent, count"
scalar scenarioPRJP1.node[50].mobility 	startTime 	4.9
scalar scenarioPRJP1.node[50].mobility 	totalTime 	156.6
scalar scenarioPRJP1.node[50].mobility 	stopTime 	161.6
scalar scenarioPRJP1.node[50].mobility 	minSpeed 	2.47588763494e-13
scalar scenarioPRJP1.node[50].mobility 	maxSpeed 	16.614459031354
scalar scenarioPRJP1.node[50].mobility 	totalDistance 	1484.7746805383
scalar scenarioPRJP1.node[50].mobility 	totalCO2Emission 	413.16189805698
scalar scenarioPRJP1.node[50].wlan.mgmt 	dataQueueLen:max 	1
attr interpolationmode  sample-hold
attr title  "data queue length, max"
scalar scenarioPRJP1.node[50].wlan.mgmt 	dataQueueLen:timeavg 	0
attr interpolationmode  sample-hold
attr title  "data queue length, timeavg"
scalar scenarioPRJP1.node[50].wlan.mgmt 	dropPkByQueue:count 	0
attr interpolationmode  none
attr source  dropPkByQueue
attr title  "packets dropped by queue, count"
scalar scenarioPRJP1.node[50].wlan.mgmt 	dropPkByQueue:sum(packetBytes) 	0
attr interpolationmode  none
attr source  dropPkByQueue
attr title  "packets dropped by queue, sum(packetBytes)"
scalar scenarioPRJP1.node[50].wlan.mac 	"number of received packets" 	117
scalar scenarioPRJP1.node[50].wlan.mac 	"number of collisions" 	2461
scalar scenarioPRJP1.node[50].wlan.mac 	"number of internal collisions" 	0
scalar scenarioPRJP1.node[50].wlan.mac 	"number of retry for AC 0" 	514
scalar scenarioPRJP1.node[50].wlan.mac 	"number of retry for AC 1" 	0
scalar scenarioPRJP1.node[50].wlan.mac 	"number of retry for AC 2" 	0
scalar scenarioPRJP1.node[50].wlan.mac 	"number of retry for AC 3" 	0
scalar scenarioPRJP1.node[50].wlan.mac 	"sent and received bits" 	5881344
scalar scenarioPRJP1.node[50].wlan.mac 	"sent packet within AC 0" 	128
scalar scenarioPRJP1.node[50].wlan.mac 	"sent packet within AC 1" 	4
scalar scenarioPRJP1.node[50].wlan.mac 	"sent packet within AC 2" 	0
scalar scenarioPRJP1.node[50].wlan.mac 	"sent packet within AC 3" 	0
scalar scenarioPRJP1.node[50].wlan.mac 	"sent in TXOP " 	0
scalar scenarioPRJP1.node[50].wlan.mac 	"sentWithoutRetry AC 0" 	84
scalar scenarioPRJP1.node[50].wlan.mac 	"sentWithoutRetry AC 1" 	4
scalar scenarioPRJP1.node[50].wlan.mac 	"sentWithoutRetry AC 2" 	0
scalar scenarioPRJP1.node[50].wlan.mac 	"sentWithoutRetry AC 3" 	0
scalar scenarioPRJP1.node[50].wlan.mac 	"numGivenUp AC 0" 	63
scalar scenarioPRJP1.node[50].wlan.mac 	"numGivenUp AC 1" 	0
scalar scenarioPRJP1.node[50].wlan.mac 	"numGivenUp AC 2" 	0
scalar scenarioPRJP1.node[50].wlan.mac 	"numGivenUp AC 3" 	0
scalar scenarioPRJP1.node[50].wlan.mac 	"numDropped AC 0" 	0
scalar scenarioPRJP1.node[50].wlan.mac 	"numDropped AC 1" 	0
scalar scenarioPRJP1.node[50].wlan.mac 	"numDropped AC 2" 	0
scalar scenarioPRJP1.node[50].wlan.mac 	"numDropped AC 3" 	0
scalar scenarioPRJP1.node[50].wlan.mac 	rcvdPkFromLL:count 	11374
attr interpolationmode  none
attr source  packetReceivedFromLower
attr title  "packets received from lower layer, count"
scalar scenarioPRJP1.node[50].wlan.mac 	rcvdPkFromLL:sum(packetBytes) 	7711980
attr interpolationmode  none
attr source  packetReceivedFromLower
attr title  "packets received from lower layer, sum(packetBytes)"
scalar scenarioPRJP1.node[50].wlan.mac 	sentDownPk:count 	1501
attr interpolationmode  none
attr source  packetSentToLower
attr title  "packets sent to lower layer, count"
scalar scenarioPRJP1.node[50].wlan.mac 	sentDownPk:sum(packetBytes) 	1057382
attr interpolationmode  none
attr source  packetSentToLower
attr title  "packets sent to lower layer, sum(packetBytes)"
scalar scenarioPRJP1.node[50].wlan.mac 	rcvdPkFromHL:count 	870
attr interpolationmode  none
attr source  packetReceivedFromUpper
attr title  "packets received from higher layer, count"
scalar scenarioPRJP1.node[50].wlan.mac 	rcvdPkFromHL:sum(packetBytes) 	770944
attr interpolationmode  none
attr source  packetReceivedFromUpper
attr title  "packets received from higher layer, sum(packetBytes)"
scalar scenarioPRJP1.node[50].wlan.mac 	passedUpPk:count 	4466
attr interpolationmode  none
attr source  packetSentToUpper
attr title  "packets passed to higher layer, count"
scalar scenarioPRJP1.node[50].wlan.mac 	passedUpPk:sum(packetBytes) 	4400108
attr interpolationmode  none
attr source  packetSentToUpper
attr title  "packets passed to higher layer, sum(packetBytes)"
statistic scenarioPRJP1.node[50].wlan.radio 	radioChannel:histogram
field count 1
field mean 3
field stddev -nan
field sum 3
field sqrsum 9
field min 3
field max 3
attr interpolationmode  sample-hold
attr source  radioChannelChanged
attr title  "Radio channel, histogram"
bin	-INF	0
bin	2	0
bin	3	1
bin	4	0
scalar scenarioPRJP1.node[50].wlan.radio 	transmissionState:count 	6004
attr interpolationmode  sample-hold
attr source  transmissionStateChanged
attr title  "Radio transmission state, count"
scalar scenarioPRJP1.node[50].wlan.radio 	receptionState:count 	48096
attr interpolationmode  sample-hold
attr source  receptionStateChanged
attr title  "Radio reception state, count"
scalar scenarioPRJP1.node[50].wlan.radio 	radioMode:count 	3004
attr interpolationmode  sample-hold
attr source  radioModeChanged
attr title  "Radio mode, count"
statistic scenarioPRJP1.node[50].wlan.radio 	symbolErrorRate:histogram
field count 0
field mean -nan
field stddev -nan
field sum 0
field sqrsum 0
field min -nan
field max -nan
attr source  symbolErrorRate
attr title  "Symbol error rate, histogram"
bin	-INF	0
bin	-0.5	0
bin	-0.46666666666667	0
bin	-0.43333333333333	0
bin	-0.4	0
bin	-0.36666666666667	0
bin	-0.33333333333333	0
bin	-0.3	0
bin	-0.26666666666667	0
bin	-0.23333333333333	0
bin	-0.2	0
bin	-0.16666666666667	0
bin	-0.13333333333333	0
bin	-0.1	0
bin	-0.066666666666667	0
bin	-0.033333333333333	0
bin	0	0
bin	0.033333333333333	0
bin	0.066666666666667	0
bin	0.1	0
bin	0.13333333333333	0
bin	0.16666666666667	0
bin	0.2	0
bin	0.23333333333333	0
bin	0.26666666666667	0
bin	0.3	0
bin	0.33333333333333	0
bin	0.36666666666667	0
bin	0.4	0
bin	0.43333333333333	0
bin	0.46666666666667	0
bin	0.5	0
statistic scenarioPRJP1.node[50].wlan.radio 	bitErrorRate:histogram
field count 0
field mean -nan
field stddev -nan
field sum 0
field sqrsum 0
field min -nan
field max -nan
attr source  bitErrorRate
attr title  "Bit error rate, histogram"
bin	-INF	0
bin	-0.5	0
bin	-0.46666666666667	0
bin	-0.43333333333333	0
bin	-0.4	0
bin	-0.36666666666667	0
bin	-0.33333333333333	0
bin	-0.3	0
bin	-0.26666666666667	0
bin	-0.23333333333333	0
bin	-0.2	0
bin	-0.16666666666667	0
bin	-0.13333333333333	0
bin	-0.1	0
bin	-0.066666666666667	0
bin	-0.033333333333333	0
bin	0	0
bin	0.033333333333333	0
bin	0.066666666666667	0
bin	0.1	0
bin	0.13333333333333	0
bin	0.16666666666667	0
bin	0.2	0
bin	0.23333333333333	0
bin	0.26666666666667	0
bin	0.3	0
bin	0.33333333333333	0
bin	0.36666666666667	0
bin	0.4	0
bin	0.43333333333333	0
bin	0.46666666666667	0
bin	0.5	0
statistic scenarioPRJP1.node[50].wlan.radio 	packetErrorRate:histogram
field count 11374
field mean 0.20200613082559
field stddev 0.38815952237592
field sum 2297.6177320102
field sqrsum 2177.6779260063
field min 0
field max 1
attr source  packetErrorRate
attr title  "Packet error rate, histogram"
bin	-INF	0
bin	-0.5	0
bin	-0.43333333333333	0
bin	-0.36666666666667	0
bin	-0.3	0
bin	-0.23333333333333	0
bin	-0.16666666666667	0
bin	-0.1	0
bin	-0.033333333333333	8593
bin	0.033333333333333	194
bin	0.1	88
bin	0.16666666666667	63
bin	0.23333333333333	57
bin	0.3	40
bin	0.36666666666667	45
bin	0.43333333333333	36
bin	0.5	41
bin	0.56666666666667	29
bin	0.63333333333333	28
bin	0.7	29
bin	0.76666666666667	31
bin	0.83333333333333	40
bin	0.9	67
bin	0.96666666666667	1993
bin	1.0333333333333	0
bin	1.1	0
bin	1.1666666666667	0
bin	1.2333333333333	0
bin	1.3	0
bin	1.3666666666667	0
bin	1.4333333333333	0
bin	1.5	0
statistic scenarioPRJP1.node[50].wlan.radio 	minSNIR:histogram
field count 11374
field mean 3679.4653160263
field stddev 70203.895189934
field sum 41850238.504483
field sqrsum 56206805312916
field min 0.015898650326863
field max 3012958.855681
attr source  minSNIR
attr title  "Min SNIR, histogram"
bin	-INF	0
bin	-62699.061535534	0
bin	-54339.028938311	0
bin	-45978.996341088	0
bin	-37618.963743866	0
bin	-29258.931146643	0
bin	-20898.89854942	0
bin	-12538.865952198	0
bin	-4178.833354975	10920
bin	4181.1992422477	205
bin	12541.23183947	48
bin	20901.264436693	32
bin	29261.297033916	15
bin	37621.329631138	16
bin	45981.362228361	6
bin	54341.394825584	13
bin	62701.427422807	7
bin	71061.460020029	9
bin	79421.492617252	48
bin	87781.525214475	4
bin	96141.557811697	3
bin	104501.59040892	2
bin	112861.62300614	2
bin	121221.65560337	19
bin	129581.68820059	0
bin	137941.72079781	1
bin	146301.75339503	0
bin	154661.78599226	1
bin	163021.81858948	1
bin	171381.8511867	1
bin	179741.88378392	0
bin	188101.91638115	21
scalar scenarioPRJP1.node[50].lo0.lo 	droppedPkBitError:count 	0
attr interpolationmode  none
attr source  dropPkBitError
attr title  "packets dropped/bit error, count"
scalar scenarioPRJP1.node[50].lo0.lo 	droppedPkBitError:sum(packetBytes) 	0
attr interpolationmode  none
attr source  dropPkBitError
attr title  "packets dropped/bit error, sum(packetBytes)"
scalar scenarioPRJP1.node[50].lo0.lo 	rcvdPkFromHL:count 	2
attr interpolationmode  none
attr source  packetReceivedFromUpper
attr title  "packets received from higher layer, count"
scalar scenarioPRJP1.node[50].lo0.lo 	rcvdPkFromHL:sum(packetBytes) 	112
attr interpolationmode  none
attr source  packetReceivedFromUpper
attr title  "packets received from higher layer, sum(packetBytes)"
scalar scenarioPRJP1.node[50].lo0.lo 	passedUpPk:count 	2
attr interpolationmode  none
attr source  packetSentToUpper
attr title  "packets passed to higher layer, count"
scalar scenarioPRJP1.node[50].lo0.lo 	passedUpPk:sum(packetBytes) 	112
attr interpolationmode  none
attr source  packetSentToUpper
attr title  "packets passed to higher layer, sum(packetBytes)"
scalar scenarioPRJP1.node[57].app 	"Total sent" 	378
scalar scenarioPRJP1.node[57].app 	"Total received" 	34
scalar scenarioPRJP1.node[57].app 	"Total deleted" 	0
scalar scenarioPRJP1.node[57].app 	dropPk:count 	0
attr interpolationmode  none
attr source  dropPk
attr title  "packets dropped, count"
scalar scenarioPRJP1.node[57].app 	dropPk:sum(packetBytes) 	0
attr interpolationmode  none
attr source  dropPk
attr title  "packets dropped, sum(packetBytes)"
scalar scenarioPRJP1.node[57].app 	outOfOrderPk:count 	0
attr interpolationmode  none
attr source  outOfOrderPk
attr title  "packets received out of order, count"
scalar scenarioPRJP1.node[57].app 	outOfOrderPk:sum(packetBytes) 	0
attr interpolationmode  none
attr source  outOfOrderPk
attr title  "packets received out of order, sum(packetBytes)"
scalar scenarioPRJP1.node[57].app 	rcvdPk:count 	34
attr interpolationmode  none
attr source  rcvdPk
attr title  "packets received, count"
scalar scenarioPRJP1.node[57].app 	rcvdPk:sum(packetBytes) 	17408
attr interpolationmode  none
attr source  rcvdPk
attr title  "packets received, sum(packetBytes)"
statistic scenarioPRJP1.node[57].app 	endToEndDelay:histogram
field count 34
field mean 0.16728703415503
field stddev 0.50291198169647
field sum 5.687759161271
field sqrsum 9.2978635850947
field min 0.00089351518
field max 2.06041516762
attr interpolationmode  none
attr source  messageAge(rcvdPk)
attr title  "delay, histogram"
attr unit  s
bin	-INF	0
bin	-1.02886731104	0
bin	-0.891565867544	0
bin	-0.754264424048	0
bin	-0.616962980552	0
bin	-0.479661537056	0
bin	-0.34236009356	0
bin	-0.205058650064	0
bin	-0.067757206568	30
bin	0.069544236928	1
bin	0.206845680424	0
bin	0.34414712392	0
bin	0.481448567416	0
bin	0.618750010912	0
bin	0.756051454408	0
bin	0.893352897904	1
bin	1.0306543414	0
bin	1.167955784896	0
bin	1.305257228392	0
bin	1.442558671888	0
bin	1.579860115384	0
bin	1.71716155888	0
bin	1.854463002376	0
bin	1.991764445872	2
bin	2.129065889368	0
bin	2.266367332864	0
bin	2.40366877636	0
bin	2.540970219856	0
bin	2.678271663352	0
bin	2.815573106848	0
bin	2.952874550344	0
bin	3.09017599384	0
scalar scenarioPRJP1.node[57].app 	sentPk:count 	378
attr interpolationmode  none
attr source  sentPk
attr title  "packets sent, count"
scalar scenarioPRJP1.node[57].app 	sentPk:sum(packetBytes) 	193536
attr interpolationmode  none
attr source  sentPk
attr title  "packets sent, sum(packetBytes)"
scalar scenarioPRJP1.node[57].udp 	droppedPkBadChecksum:count 	0
attr interpolationmode  none
attr title  "packets dropped (checksum error), count"
scalar scenarioPRJP1.node[57].udp 	droppedPkWrongPort:count 	0
attr interpolationmode  none
attr title  "packets dropped (wrong port), count"
scalar scenarioPRJP1.node[57].udp 	passedUpPk:count 	34
attr interpolationmode  none
attr title  "packets passed up, count"
scalar scenarioPRJP1.node[57].udp 	rcvdPk:count 	34
attr interpolationmode  none
attr source  rcvdPk
attr title  "packets received, count"
scalar scenarioPRJP1.node[57].udp 	rcvdPk:sum(packetBytes) 	17680
attr interpolationmode  none
attr source  rcvdPk
attr title  "packets received, sum(packetBytes)"
scalar scenarioPRJP1.node[57].udp 	sentPk:count 	378
attr interpolationmode  none
attr source  sentPk
attr title  "packets sent, count"
scalar scenarioPRJP1.node[57].udp 	sentPk:sum(packetBytes) 	196560
attr interpolationmode  none
attr source  sentPk
attr title  "packets sent, sum(packetBytes)"
scalar scenarioPRJP1.node[57].networkLayer.arp 	failedARPResolution:count 	1
attr title  "ARP failed resolutions, count"
scalar scenarioPRJP1.node[57].networkLayer.arp 	completedARPResolution:count 	180
attr title  "ARP completed resolutions, count"
scalar scenarioPRJP1.node[57].networkLayer.arp 	initiatedARPResolution:count 	14
attr title  "ARP initiated resolutions, count"
scalar scenarioPRJP1.node[57].networkLayer.arp 	sentReply:count 	12
attr title  "ARP replies sent, count"
scalar scenarioPRJP1.node[57].networkLayer.arp 	sentReq:count 	23
attr title  "ARP request sent, count"
scalar scenarioPRJP1.node[57].mobility 	startTime 	4.9
scalar scenarioPRJP1.node[57].mobility 	totalTime 	158.1
scalar scenarioPRJP1.node[57].mobility 	stopTime 	163.1
scalar scenarioPRJP1.node[57].mobility 	minSpeed 	2.475970827118e-13
scalar scenarioPRJP1.node[57].mobility 	maxSpeed 	15.697222340407
scalar scenarioPRJP1.node[57].mobility 	totalDistance 	1447.9866271818
scalar scenarioPRJP1.node[57].mobility 	totalCO2Emission 	387.61916945858
scalar scenarioPRJP1.node[57].wlan.mgmt 	dataQueueLen:max 	0
attr interpolationmode  sample-hold
attr title  "data queue length, max"
scalar scenarioPRJP1.node[57].wlan.mgmt 	dataQueueLen:timeavg 	0
attr interpolationmode  sample-hold
attr title  "data queue length, timeavg"
scalar scenarioPRJP1.node[57].wlan.mgmt 	dropPkByQueue:count 	0
attr interpolationmode  none
attr source  dropPkByQueue
attr title  "packets dropped by queue, count"
scalar scenarioPRJP1.node[57].wlan.mgmt 	dropPkByQueue:sum(packetBytes) 	0
attr interpolationmode  none
attr source  dropPkByQueue
attr title  "packets dropped by queue, sum(packetBytes)"
scalar scenarioPRJP1.node[57].wlan.mac 	"number of received packets" 	89
scalar scenarioPRJP1.node[57].wlan.mac 	"number of collisions" 	2514
scalar scenarioPRJP1.node[57].wlan.mac 	"number of internal collisions" 	0
scalar scenarioPRJP1.node[57].wlan.mac 	"number of retry for AC 0" 	406
scalar scenarioPRJP1.node[57].wlan.mac 	"number of retry for AC 1" 	6
scalar scenarioPRJP1.node[57].wlan.mac 	"number of retry for AC 2" 	0
scalar scenarioPRJP1.node[57].wlan.mac 	"number of retry for AC 3" 	0
scalar scenarioPRJP1.node[57].wlan.mac 	"sent and received bits" 	4122016
scalar scenarioPRJP1.node[57].wlan.mac 	"sent packet within AC 0" 	98
scalar scenarioPRJP1.node[57].wlan.mac 	"sent packet within AC 1" 	5
scalar scenarioPRJP1.node[57].wlan.mac 	"sent packet within AC 2" 	0
scalar scenarioPRJP1.node[57].wlan.mac 	"sent packet within AC 3" 	0
scalar scenarioPRJP1.node[57].wlan.mac 	"sent in TXOP " 	0
scalar scenarioPRJP1.node[57].wlan.mac 	"sentWithoutRetry AC 0" 	78
scalar scenarioPRJP1.node[57].wlan.mac 	"sentWithoutRetry AC 1" 	5
scalar scenarioPRJP1.node[57].wlan.mac 	"sentWithoutRetry AC 2" 	0
scalar scenarioPRJP1.node[57].wlan.mac 	"sentWithoutRetry AC 3" 	0
scalar scenarioPRJP1.node[57].wlan.mac 	"numGivenUp AC 0" 	56
scalar scenarioPRJP1.node[57].wlan.mac 	"numGivenUp AC 1" 	1
scalar scenarioPRJP1.node[57].wlan.mac 	"numGivenUp AC 2" 	0
scalar scenarioPRJP1.node[57].wlan.mac 	"numGivenUp AC 3" 	0
scalar scenarioPRJP1.node[57].wlan.mac 	"numDropped AC 0" 	0
scalar scenarioPRJP1.node[57].wlan.mac 	"numDropped AC 1" 	0
scalar scenarioPRJP1.node[57].wlan.mac 	"numDropped AC 2" 	0
scalar scenarioPRJP1.node[57].wlan.mac 	"numDropped AC 3" 	0
scalar scenarioPRJP1.node[57].wlan.mac 	rcvdPkFromLL:count 	14936
attr interpolationmode  none
attr source  packetReceivedFromLower
attr title  "packets received from lower layer, count"
scalar scenarioPRJP1.node[57].wlan.mac 	rcvdPkFromLL:sum(packetBytes) 	9331364
attr interpolationmode  none
attr source  packetReceivedFromLower
attr title  "packets received from lower layer, sum(packetBytes)"
scalar scenarioPRJP1.node[57].wlan.mac 	sentDownPk:count 	1125
attr interpolationmode  none
attr source  packetSentToLower
attr title  "packets sent to lower layer, count"
scalar scenarioPRJP1.node[57].wlan.mac 	sentDownPk:sum(packetBytes) 	770454
attr interpolationmode  none
attr source  packetSentToLower
attr title  "packets sent to lower layer, sum(packetBytes)"
scalar scenarioPRJP1.node[57].wlan.mac 	rcvdPkFromHL:count 	624
attr interpolationmode  none
attr source  packetReceivedFromUpper
attr title  "packets received from higher layer, count"
scalar scenarioPRJP1.node[57].wlan.mac 	rcvdPkFromHL:sum(packetBytes) 	547088
attr interpolationmode  none
attr source  packetReceivedFromUpper
attr title  "packets received from higher layer, sum(packetBytes)"
scalar scenarioPRJP1.node[57].wlan.mac 	passedUpPk:count 	5053
attr interpolationmode  none
attr source  packetSentToUpper
attr title  "packets passed to higher layer, count"
scalar scenarioPRJP1.node[57].wlan.mac 	passedUpPk:sum(packetBytes) 	4957776
attr interpolationmode  none
attr source  packetSentToUpper
attr title  "packets passed to higher layer, sum(packetBytes)"
statistic scenarioPRJP1.node[57].wlan.radio 	radioChannel:histogram
field count 1
field mean 3
field stddev -nan
field sum 3
field sqrsum 9
field min 3
field max 3
attr interpolationmode  sample-hold
attr source  radioChannelChanged
attr title  "Radio channel, histogram"
bin	-INF	0
bin	2	0
bin	3	1
bin	4	0
scalar scenarioPRJP1.node[57].wlan.radio 	transmissionState:count 	4500
attr interpolationmode  sample-hold
attr source  transmissionStateChanged
attr title  "Radio transmission state, count"
scalar scenarioPRJP1.node[57].wlan.radio 	receptionState:count 	61034
attr interpolationmode  sample-hold
attr source  receptionStateChanged
attr title  "Radio reception state, count"
scalar scenarioPRJP1.node[57].wlan.radio 	radioMode:count 	2252
attr interpolationmode  sample-hold
attr source  radioModeChanged
attr title  "Radio mode, count"
statistic scenarioPRJP1.node[57].wlan.radio 	symbolErrorRate:histogram
field count 0
field mean -nan
field stddev -nan
field sum 0
field sqrsum 0
field min -nan
field max -nan
attr source  symbolErrorRate
attr title  "Symbol error rate, histogram"
bin	-INF	0
bin	-0.5	0
bin	-0.46666666666667	0
bin	-0.43333333333333	0
bin	-0.4	0
bin	-0.36666666666667	0
bin	-0.33333333333333	0
bin	-0.3	0
bin	-0.26666666666667	0
bin	-0.23333333333333	0
bin	-0.2	0
bin	-0.16666666666667	0
bin	-0.13333333333333	0
bin	-0.1	0
bin	-0.066666666666667	0
bin	-0.033333333333333	0
bin	0	0
bin	0.033333333333333	0
bin	0.066666666666667	0
bin	0.1	0
bin	0.13333333333333	0
bin	0.16666666666667	0
bin	0.2	0
bin	0.23333333333333	0
bin	0.26666666666667	0
bin	0.3	0
bin	0.33333333333333	0
bin	0.36666666666667	0
bin	0.4	0
bin	0.43333333333333	0
bin	0.46666666666667	0
bin	0.5	0
statistic scenarioPRJP1.node[57].wlan.radio 	bitErrorRate:histogram
field count 0
field mean -nan
field stddev -nan
field sum 0
field sqrsum 0
field min -nan
field max -nan
attr source  bitErrorRate
attr title  "Bit error rate, histogram"
bin	-INF	0
bin	-0.5	0
bin	-0.46666666666667	0
bin	-0.43333333333333	0
bin	-0.4	0
bin	-0.36666666666667	0
bin	-0.33333333333333	0
bin	-0.3	0
bin	-0.26666666666667	0
bin	-0.23333333333333	0
bin	-0.2	0
bin	-0.16666666666667	0
bin	-0.13333333333333	0
bin	-0.1	0
bin	-0.066666666666667	0
bin	-0.033333333333333	0
bin	0	0
bin	0.033333333333333	0
bin	0.066666666666667	0
bin	0.1	0
bin	0.13333333333333	0
bin	0.16666666666667	0
bin	0.2	0
bin	0.23333333333333	0
bin	0.26666666666667	0
bin	0.3	0
bin	0.33333333333333	0
bin	0.36666666666667	0
bin	0.4	0
bin	0.43333333333333	0
bin	0.46666666666667	0
bin	0.5	0
statistic scenarioPRJP1.node[57].wlan.radio 	packetErrorRate:histogram
field count 14936
field mean 0.15592510223529
field stddev 0.35337020416688
field sum 2328.8973269863
field sqrsum 2228.0744891224
field min 0
field max 1
attr source  packetErrorRate
attr title  "Packet error rate, histogram"
bin	-INF	0
bin	-1	0
bin	0	13223
bin	1	1713
bin	2	0
statistic scenarioPRJP1.node[57].wlan.radio 	minSNIR:histogram
field count 14936
field mean 4041.4446696829
field stddev 39259.058637194
field sum 60363017.586384
field sqrsum 23262876282320
field min 0.0017367776201259
field max 1816974.7350573
attr source  minSNIR
attr title  "Min SNIR, histogram"
bin	-INF	0
bin	-46686.453549874	0
bin	-40461.589106565	0
bin	-34236.724663255	0
bin	-28011.860219945	0
bin	-21786.995776635	0
bin	-15562.131333325	0
bin	-9337.2668900155	0
bin	-3112.4024467057	13580
bin	3112.4619966041	859
bin	9337.3264399139	135
bin	15562.190883224	65
bin	21787.055326533	37
bin	28011.919769843	50
bin	34236.784213153	18
bin	40461.648656463	19
bin	46686.513099773	11
bin	52911.377543083	5
bin	59136.241986392	5
bin	65361.106429702	1
bin	71585.970873012	4
bin	77810.835316322	0
bin	84035.699759632	3
bin	90260.564202941	2
bin	96485.428646251	1
bin	102710.29308956	2
bin	108935.15753287	6
bin	115160.02197618	2
bin	121384.88641949	3
bin	127609.7508628	2
bin	133834.61530611	2
bin	140059.47974942	124
scalar scenarioPRJP1.node[57].lo0.lo 	droppedPkBitError:count 	0
attr interpolationmode  none
attr source  dropPkBitError
attr title  "packets dropped/bit error, count"
scalar scenarioPRJP1.node[57].lo0.lo 	droppedPkBitError:sum(packetBytes) 	0
attr interpolationmode  none
attr source  dropPkBitError
attr title  "packets dropped/bit error, sum(packetBytes)"
scalar scenarioPRJP1.node[57].lo0.lo 	rcvdPkFromHL:count 	0
attr interpolationmode  none
attr source  packetReceivedFromUpper
attr title  "packets received from higher layer, count"
scalar scenarioPRJP1.node[57].lo0.lo 	rcvdPkFromHL:sum(packetBytes) 	0
attr interpolationmode  none
attr source  packetReceivedFromUpper
attr title  "packets received from higher layer, sum(packetBytes)"
scalar scenarioPRJP1.node[57].lo0.lo 	passedUpPk:count 	0
attr interpolationmode  none
attr source  packetSentToUpper
attr title  "packets passed to higher layer, count"
scalar scenarioPRJP1.node[57].lo0.lo 	passedUpPk:sum(packetBytes) 	0
attr interpolationmode  none
attr source  packetSentToUpper
attr title  "packets passed to higher layer, sum(packetBytes)"
scalar scenarioPRJP1.node[33].app 	"Total sent" 	620
scalar scenarioPRJP1.node[33].app 	"Total received" 	42
scalar scenarioPRJP1.node[33].app 	"Total deleted" 	0
scalar scenarioPRJP1.node[33].app 	dropPk:count 	0
attr interpolationmode  none
attr source  dropPk
attr title  "packets dropped, count"
scalar scenarioPRJP1.node[33].app 	dropPk:sum(packetBytes) 	0
attr interpolationmode  none
attr source  dropPk
attr title  "packets dropped, sum(packetBytes)"
scalar scenarioPRJP1.node[33].app 	outOfOrderPk:count 	0
attr interpolationmode  none
attr source  outOfOrderPk
attr title  "packets received out of order, count"
scalar scenarioPRJP1.node[33].app 	outOfOrderPk:sum(packetBytes) 	0
attr interpolationmode  none
attr source  outOfOrderPk
attr title  "packets received out of order, sum(packetBytes)"
scalar scenarioPRJP1.node[33].app 	rcvdPk:count 	42
attr interpolationmode  none
attr source  rcvdPk
attr title  "packets received, count"
scalar scenarioPRJP1.node[33].app 	rcvdPk:sum(packetBytes) 	21504
attr interpolationmode  none
attr source  rcvdPk
attr title  "packets received, sum(packetBytes)"
statistic scenarioPRJP1.node[33].app 	endToEndDelay:histogram
field count 42
field mean 0.12582911945155
field stddev 0.31732236520713
field sum 5.284823016965
field sqrsum 4.7934174485685
field min 0.000909147135
field max 1.264115909138
attr interpolationmode  none
attr source  messageAge(rcvdPk)
attr title  "delay, histogram"
attr unit  s
bin	-INF	0
bin	-0.6306942338665	0
bin	-0.54648044973297	0
bin	-0.46226666559943	0
bin	-0.3780528814659	0
bin	-0.29383909733237	0
bin	-0.20962531319883	0
bin	-0.1254115290653	0
bin	-0.041197744931767	30
bin	0.043016039201767	6
bin	0.1272298233353	2
bin	0.21144360746883	0
bin	0.29565739160237	0
bin	0.3798711757359	0
bin	0.46408495986943	0
bin	0.54829874400297	0
bin	0.6325125281365	0
bin	0.71672631227003	0
bin	0.80094009640357	0
bin	0.8851538805371	0
bin	0.96936766467063	2
bin	1.0535814488042	1
bin	1.1377952329377	0
bin	1.2220090170712	1
bin	1.3062228012048	0
bin	1.3904365853383	0
bin	1.4746503694718	0
bin	1.5588641536054	0
bin	1.6430779377389	0
bin	1.7272917218724	0
bin	1.811505506006	0
bin	1.8957192901395	0
scalar scenarioPRJP1.node[33].app 	sentPk:count 	620
attr interpolationmode  none
attr source  sentPk
attr title  "packets sent, count"
scalar scenarioPRJP1.node[33].app 	sentPk:sum(packetBytes) 	317440
attr interpolationmode  none
attr source  sentPk
attr title  "packets sent, sum(packetBytes)"
scalar scenarioPRJP1.node[33].udp 	droppedPkBadChecksum:count 	0
attr interpolationmode  none
attr title  "packets dropped (checksum error), count"
scalar scenarioPRJP1.node[33].udp 	droppedPkWrongPort:count 	0
attr interpolationmode  none
attr title  "packets dropped (wrong port), count"
scalar scenarioPRJP1.node[33].udp 	passedUpPk:count 	42
attr interpolationmode  none
attr title  "packets passed up, count"
scalar scenarioPRJP1.node[33].udp 	rcvdPk:count 	42
attr interpolationmode  none
attr source  rcvdPk
attr title  "packets received, count"
scalar scenarioPRJP1.node[33].udp 	rcvdPk:sum(packetBytes) 	21840
attr interpolationmode  none
attr source  rcvdPk
attr title  "packets received, sum(packetBytes)"
scalar scenarioPRJP1.node[33].udp 	sentPk:count 	620
attr interpolationmode  none
attr source  sentPk
attr title  "packets sent, count"
scalar scenarioPRJP1.node[33].udp 	sentPk:sum(packetBytes) 	322400
attr interpolationmode  none
attr source  sentPk
attr title  "packets sent, sum(packetBytes)"
scalar scenarioPRJP1.node[33].networkLayer.arp 	failedARPResolution:count 	3
attr title  "ARP failed resolutions, count"
scalar scenarioPRJP1.node[33].networkLayer.arp 	completedARPResolution:count 	256
attr title  "ARP completed resolutions, count"
scalar scenarioPRJP1.node[33].networkLayer.arp 	initiatedARPResolution:count 	22
attr title  "ARP initiated resolutions, count"
scalar scenarioPRJP1.node[33].networkLayer.arp 	sentReply:count 	11
attr title  "ARP replies sent, count"
scalar scenarioPRJP1.node[33].networkLayer.arp 	sentReq:count 	33
attr title  "ARP request sent, count"
scalar scenarioPRJP1.node[33].mobility 	startTime 	2.5
scalar scenarioPRJP1.node[33].mobility 	totalTime 	244
scalar scenarioPRJP1.node[33].mobility 	stopTime 	246.6
scalar scenarioPRJP1.node[33].mobility 	minSpeed 	2.4758580778324e-13
scalar scenarioPRJP1.node[33].mobility 	maxSpeed 	17.603775954791
scalar scenarioPRJP1.node[33].mobility 	totalDistance 	2234.3885271351
scalar scenarioPRJP1.node[33].mobility 	totalCO2Emission 	648.73722734468
scalar scenarioPRJP1.node[33].wlan.mgmt 	dataQueueLen:max 	0
attr interpolationmode  sample-hold
attr title  "data queue length, max"
scalar scenarioPRJP1.node[33].wlan.mgmt 	dataQueueLen:timeavg 	0
attr interpolationmode  sample-hold
attr title  "data queue length, timeavg"
scalar scenarioPRJP1.node[33].wlan.mgmt 	dropPkByQueue:count 	0
attr interpolationmode  none
attr source  dropPkByQueue
attr title  "packets dropped by queue, count"
scalar scenarioPRJP1.node[33].wlan.mgmt 	dropPkByQueue:sum(packetBytes) 	0
attr interpolationmode  none
attr source  dropPkByQueue
attr title  "packets dropped by queue, sum(packetBytes)"
scalar scenarioPRJP1.node[33].wlan.mac 	"number of received packets" 	266
scalar scenarioPRJP1.node[33].wlan.mac 	"number of collisions" 	3310
scalar scenarioPRJP1.node[33].wlan.mac 	"number of internal collisions" 	0
scalar scenarioPRJP1.node[33].wlan.mac 	"number of retry for AC 0" 	699
scalar scenarioPRJP1.node[33].wlan.mac 	"number of retry for AC 1" 	1
scalar scenarioPRJP1.node[33].wlan.mac 	"number of retry for AC 2" 	0
scalar scenarioPRJP1.node[33].wlan.mac 	"number of retry for AC 3" 	0
scalar scenarioPRJP1.node[33].wlan.mac 	"sent and received bits" 	7929952
scalar scenarioPRJP1.node[33].wlan.mac 	"sent packet within AC 0" 	238
scalar scenarioPRJP1.node[33].wlan.mac 	"sent packet within AC 1" 	10
scalar scenarioPRJP1.node[33].wlan.mac 	"sent packet within AC 2" 	0
scalar scenarioPRJP1.node[33].wlan.mac 	"sent packet within AC 3" 	0
scalar scenarioPRJP1.node[33].wlan.mac 	"sent in TXOP " 	0
scalar scenarioPRJP1.node[33].wlan.mac 	"sentWithoutRetry AC 0" 	194
scalar scenarioPRJP1.node[33].wlan.mac 	"sentWithoutRetry AC 1" 	9
scalar scenarioPRJP1.node[33].wlan.mac 	"sentWithoutRetry AC 2" 	0
scalar scenarioPRJP1.node[33].wlan.mac 	"sentWithoutRetry AC 3" 	0
scalar scenarioPRJP1.node[33].wlan.mac 	"numGivenUp AC 0" 	95
scalar scenarioPRJP1.node[33].wlan.mac 	"numGivenUp AC 1" 	0
scalar scenarioPRJP1.node[33].wlan.mac 	"numGivenUp AC 2" 	0
scalar scenarioPRJP1.node[33].wlan.mac 	"numGivenUp AC 3" 	0
scalar scenarioPRJP1.node[33].wlan.mac 	"numDropped AC 0" 	0
scalar scenarioPRJP1.node[33].wlan.mac 	"numDropped AC 1" 	0
scalar scenarioPRJP1.node[33].wlan.mac 	"numDropped AC 2" 	0
scalar scenarioPRJP1.node[33].wlan.mac 	"numDropped AC 3" 	0
scalar scenarioPRJP1.node[33].wlan.mac 	rcvdPkFromLL:count 	14682
attr interpolationmode  none
attr source  packetReceivedFromLower
attr title  "packets received from lower layer, count"
scalar scenarioPRJP1.node[33].wlan.mac 	rcvdPkFromLL:sum(packetBytes) 	9757352
attr interpolationmode  none
attr source  packetReceivedFromLower
attr title  "packets received from lower layer, sum(packetBytes)"
scalar scenarioPRJP1.node[33].wlan.mac 	sentDownPk:count 	2175
attr interpolationmode  none
attr source  packetSentToLower
attr title  "packets sent to lower layer, count"
scalar scenarioPRJP1.node[33].wlan.mac 	sentDownPk:sum(packetBytes) 	1449332
attr interpolationmode  none
attr source  packetSentToLower
attr title  "packets sent to lower layer, sum(packetBytes)"
scalar scenarioPRJP1.node[33].wlan.mac 	rcvdPkFromHL:count 	1209
attr interpolationmode  none
attr source  packetReceivedFromUpper
attr title  "packets received from higher layer, count"
scalar scenarioPRJP1.node[33].wlan.mac 	rcvdPkFromHL:sum(packetBytes) 	1045964
attr interpolationmode  none
attr source  packetReceivedFromUpper
attr title  "packets received from higher layer, sum(packetBytes)"
scalar scenarioPRJP1.node[33].wlan.mac 	passedUpPk:count 	5636
attr interpolationmode  none
attr source  packetSentToUpper
attr title  "packets passed to higher layer, count"
scalar scenarioPRJP1.node[33].wlan.mac 	passedUpPk:sum(packetBytes) 	5437084
attr interpolationmode  none
attr source  packetSentToUpper
attr title  "packets passed to higher layer, sum(packetBytes)"
statistic scenarioPRJP1.node[33].wlan.radio 	radioChannel:histogram
field count 1
field mean 3
field stddev -nan
field sum 3
field sqrsum 9
field min 3
field max 3
attr interpolationmode  sample-hold
attr source  radioChannelChanged
attr title  "Radio channel, histogram"
bin	-INF	0
bin	2	0
bin	3	1
bin	4	0
scalar scenarioPRJP1.node[33].wlan.radio 	transmissionState:count 	8700
attr interpolationmode  sample-hold
attr source  transmissionStateChanged
attr title  "Radio transmission state, count"
scalar scenarioPRJP1.node[33].wlan.radio 	receptionState:count 	83805
attr interpolationmode  sample-hold
attr source  receptionStateChanged
attr title  "Radio reception state, count"
scalar scenarioPRJP1.node[33].wlan.radio 	radioMode:count 	4352
attr interpolationmode  sample-hold
attr source  radioModeChanged
attr title  "Radio mode, count"
statistic scenarioPRJP1.node[33].wlan.radio 	symbolErrorRate:histogram
field count 0
field mean -nan
field stddev -nan
field sum 0
field sqrsum 0
field min -nan
field max -nan
attr source  symbolErrorRate
attr title  "Symbol error rate, histogram"
bin	-INF	0
bin	-0.5	0
bin	-0.46666666666667	0
bin	-0.43333333333333	0
bin	-0.4	0
bin	-0.36666666666667	0
bin	-0.33333333333333	0
bin	-0.3	0
bin	-0.26666666666667	0
bin	-0.23333333333333	0
bin	-0.2	0
bin	-0.16666666666667	0
bin	-0.13333333333333	0
bin	-0.1	0
bin	-0.066666666666667	0
bin	-0.033333333333333	0
bin	0	0
bin	0.033333333333333	0
bin	0.066666666666667	0
bin	0.1	0
bin	0.13333333333333	0
bin	0.16666666666667	0
bin	0.2	0
bin	0.23333333333333	0
bin	0.26666666666667	0
bin	0.3	0
bin	0.33333333333333	0
bin	0.36666666666667	0
bin	0.4	0
bin	0.43333333333333	0
bin	0.46666666666667	0
bin	0.5	0
statistic scenarioPRJP1.node[33].wlan.radio 	bitErrorRate:histogram
field count 0
field mean -nan
field stddev -nan
field sum 0
field sqrsum 0
field min -nan
field max -nan
attr source  bitErrorRate
attr title  "Bit error rate, histogram"
bin	-INF	0
bin	-0.5	0
bin	-0.46666666666667	0
bin	-0.43333333333333	0
bin	-0.4	0
bin	-0.36666666666667	0
bin	-0.33333333333333	0
bin	-0.3	0
bin	-0.26666666666667	0
bin	-0.23333333333333	0
bin	-0.2	0
bin	-0.16666666666667	0
bin	-0.13333333333333	0
bin	-0.1	0
bin	-0.066666666666667	0
bin	-0.033333333333333	0
bin	0	0
bin	0.033333333333333	0
bin	0.066666666666667	0
bin	0.1	0
bin	0.13333333333333	0
bin	0.16666666666667	0
bin	0.2	0
bin	0.23333333333333	0
bin	0.26666666666667	0
bin	0.3	0
bin	0.33333333333333	0
bin	0.36666666666667	0
bin	0.4	0
bin	0.43333333333333	0
bin	0.46666666666667	0
bin	0.5	0
statistic scenarioPRJP1.node[33].wlan.radio 	packetErrorRate:histogram
field count 14682
field mean 0.20986913948373
field stddev 0.39547218747216
field sum 3081.2987059001
field sqrsum 2942.7522317704
field min 0
field max 1
attr source  packetErrorRate
attr title  "Packet error rate, histogram"
bin	-INF	0
bin	-0.5	0
bin	-0.43333333333333	0
bin	-0.36666666666667	0
bin	-0.3	0
bin	-0.23333333333333	0
bin	-0.16666666666667	0
bin	-0.1	0
bin	-0.033333333333333	11055
bin	0.033333333333333	205
bin	0.1	126
bin	0.16666666666667	72
bin	0.23333333333333	44
bin	0.3	57
bin	0.36666666666667	33
bin	0.43333333333333	35
bin	0.5	47
bin	0.56666666666667	39
bin	0.63333333333333	37
bin	0.7	52
bin	0.76666666666667	38
bin	0.83333333333333	52
bin	0.9	67
bin	0.96666666666667	2723
bin	1.0333333333333	0
bin	1.1	0
bin	1.1666666666667	0
bin	1.2333333333333	0
bin	1.3	0
bin	1.3666666666667	0
bin	1.4333333333333	0
bin	1.5	0
statistic scenarioPRJP1.node[33].wlan.radio 	minSNIR:histogram
field count 14682
field mean 7108.9472595066
field stddev 117581.62054761
field sum 104373563.66408
field sqrsum 2.0371323395889e+14
field min 0.004362011099301
field max 3012958.8769377
attr source  minSNIR
attr title  "Min SNIR, histogram"
bin	-INF	0
bin	-63359.372139402	0
bin	-54911.409745929	0
bin	-46463.447352456	0
bin	-38015.484958983	0
bin	-29567.52256551	0
bin	-21119.560172037	0
bin	-12671.597778564	0
bin	-4223.6353850911	13757
bin	4224.3270083818	438
bin	12672.289401855	210
bin	21120.251795328	64
bin	29568.214188801	35
bin	38016.176582274	32
bin	46464.138975746	15
bin	54912.101369219	15
bin	63360.063762692	6
bin	71808.026156165	5
bin	80255.988549638	1
bin	88703.950943111	10
bin	97151.913336584	4
bin	105599.87573006	8
bin	114047.83812353	8
bin	122495.800517	9
bin	130943.76291048	0
bin	139391.72530395	1
bin	147839.68769742	0
bin	156287.65009089	2
bin	164735.61248437	5
bin	173183.57487784	4
bin	181631.53727131	2
bin	190079.49966479	51
scalar scenarioPRJP1.node[33].lo0.lo 	droppedPkBitError:count 	0
attr interpolationmode  none
attr source  dropPkBitError
attr title  "packets dropped/bit error, count"
scalar scenarioPRJP1.node[33].lo0.lo 	droppedPkBitError:sum(packetBytes) 	0
attr interpolationmode  none
attr source  dropPkBitError
attr title  "packets dropped/bit error, sum(packetBytes)"
scalar scenarioPRJP1.node[33].lo0.lo 	rcvdPkFromHL:count 	3
attr interpolationmode  none
attr source  packetReceivedFromUpper
attr title  "packets received from higher layer, count"
scalar scenarioPRJP1.node[33].lo0.lo 	rcvdPkFromHL:sum(packetBytes) 	168
attr interpolationmode  none
attr source  packetReceivedFromUpper
attr title  "packets received from higher layer, sum(packetBytes)"
scalar scenarioPRJP1.node[33].lo0.lo 	passedUpPk:count 	3
attr interpolationmode  none
attr source  packetSentToUpper
attr title  "packets passed to higher layer, count"
scalar scenarioPRJP1.node[33].lo0.lo 	passedUpPk:sum(packetBytes) 	168
attr interpolationmode  none
attr source  packetSentToUpper
attr title  "packets passed to higher layer, sum(packetBytes)"
scalar scenarioPRJP1.node[99].app 	"Total sent" 	722
scalar scenarioPRJP1.node[99].app 	"Total received" 	88
scalar scenarioPRJP1.node[99].app 	"Total deleted" 	0
scalar scenarioPRJP1.node[99].app 	dropPk:count 	0
attr interpolationmode  none
attr source  dropPk
attr title  "packets dropped, count"
scalar scenarioPRJP1.node[99].app 	dropPk:sum(packetBytes) 	0
attr interpolationmode  none
attr source  dropPk
attr title  "packets dropped, sum(packetBytes)"
scalar scenarioPRJP1.node[99].app 	outOfOrderPk:count 	0
attr interpolationmode  none
attr source  outOfOrderPk
attr title  "packets received out of order, count"
scalar scenarioPRJP1.node[99].app 	outOfOrderPk:sum(packetBytes) 	0
attr interpolationmode  none
attr source  outOfOrderPk
attr title  "packets received out of order, sum(packetBytes)"
scalar scenarioPRJP1.node[99].app 	rcvdPk:count 	88
attr interpolationmode  none
attr source  rcvdPk
attr title  "packets received, count"
scalar scenarioPRJP1.node[99].app 	rcvdPk:sum(packetBytes) 	45056
attr interpolationmode  none
attr source  rcvdPk
attr title  "packets received, sum(packetBytes)"
statistic scenarioPRJP1.node[99].app 	endToEndDelay:histogram
field count 88
field mean 0.14921705424531
field stddev 0.37843302406081
field sum 13.131100773587
field sqrsum 14.418789348316
field min 0.000891011007
field max 2.129242388321
attr interpolationmode  none
attr source  messageAge(rcvdPk)
attr title  "delay, histogram"
attr unit  s
bin	-INF	0
bin	-1.06328467765	0
bin	-0.92139458582907	0
bin	-0.77950449400813	0
bin	-0.6376144021872	0
bin	-0.49572431036627	0
bin	-0.35383421854533	0
bin	-0.2119441267244	0
bin	-0.070054034903467	67
bin	0.071836056917467	12
bin	0.2137261487384	0
bin	0.35561624055933	0
bin	0.49750633238027	1
bin	0.6393964242012	0
bin	0.78128651602213	1
bin	0.92317660784307	5
bin	1.065066699664	0
bin	1.2069567914849	0
bin	1.3488468833059	0
bin	1.4907369751268	0
bin	1.6326270669477	0
bin	1.7745171587687	1
bin	1.9164072505896	0
bin	2.0582973424105	1
bin	2.2001874342315	0
bin	2.3420775260524	0
bin	2.4839676178733	0
bin	2.6258577096943	0
bin	2.7677478015152	0
bin	2.9096378933361	0
bin	3.0515279851571	0
bin	3.193418076978	0
scalar scenarioPRJP1.node[99].app 	sentPk:count 	722
attr interpolationmode  none
attr source  sentPk
attr title  "packets sent, count"
scalar scenarioPRJP1.node[99].app 	sentPk:sum(packetBytes) 	369664
attr interpolationmode  none
attr source  sentPk
attr title  "packets sent, sum(packetBytes)"
scalar scenarioPRJP1.node[99].udp 	droppedPkBadChecksum:count 	0
attr interpolationmode  none
attr title  "packets dropped (checksum error), count"
scalar scenarioPRJP1.node[99].udp 	droppedPkWrongPort:count 	0
attr interpolationmode  none
attr title  "packets dropped (wrong port), count"
scalar scenarioPRJP1.node[99].udp 	passedUpPk:count 	88
attr interpolationmode  none
attr title  "packets passed up, count"
scalar scenarioPRJP1.node[99].udp 	rcvdPk:count 	88
attr interpolationmode  none
attr source  rcvdPk
attr title  "packets received, count"
scalar scenarioPRJP1.node[99].udp 	rcvdPk:sum(packetBytes) 	45760
attr interpolationmode  none
attr source  rcvdPk
attr title  "packets received, sum(packetBytes)"
scalar scenarioPRJP1.node[99].udp 	sentPk:count 	722
attr interpolationmode  none
attr source  sentPk
attr title  "packets sent, count"
scalar scenarioPRJP1.node[99].udp 	sentPk:sum(packetBytes) 	375440
attr interpolationmode  none
attr source  sentPk
attr title  "packets sent, sum(packetBytes)"
scalar scenarioPRJP1.node[99].networkLayer.arp 	failedARPResolution:count 	1
attr title  "ARP failed resolutions, count"
scalar scenarioPRJP1.node[99].networkLayer.arp 	completedARPResolution:count 	300
attr title  "ARP completed resolutions, count"
scalar scenarioPRJP1.node[99].networkLayer.arp 	initiatedARPResolution:count 	29
attr title  "ARP initiated resolutions, count"
scalar scenarioPRJP1.node[99].networkLayer.arp 	sentReply:count 	22
attr title  "ARP replies sent, count"
scalar scenarioPRJP1.node[99].networkLayer.arp 	sentReq:count 	45
attr title  "ARP request sent, count"
scalar scenarioPRJP1.node[99].mobility 	startTime 	9.9
scalar scenarioPRJP1.node[99].mobility 	totalTime 	274.2
scalar scenarioPRJP1.node[99].mobility 	stopTime 	284.2
scalar scenarioPRJP1.node[99].mobility 	minSpeed 	2.4763243997443e-13
scalar scenarioPRJP1.node[99].mobility 	maxSpeed 	16.986785496982
scalar scenarioPRJP1.node[99].mobility 	totalDistance 	2206.4775585043
scalar scenarioPRJP1.node[99].mobility 	totalCO2Emission 	666.57856300658
scalar scenarioPRJP1.node[99].wlan.mgmt 	dataQueueLen:max 	1
attr interpolationmode  sample-hold
attr title  "data queue length, max"
scalar scenarioPRJP1.node[99].wlan.mgmt 	dataQueueLen:timeavg 	0
attr interpolationmode  sample-hold
attr title  "data queue length, timeavg"
scalar scenarioPRJP1.node[99].wlan.mgmt 	dropPkByQueue:count 	0
attr interpolationmode  none
attr source  dropPkByQueue
attr title  "packets dropped by queue, count"
scalar scenarioPRJP1.node[99].wlan.mgmt 	dropPkByQueue:sum(packetBytes) 	0
attr interpolationmode  none
attr source  dropPkByQueue
attr title  "packets dropped by queue, sum(packetBytes)"
scalar scenarioPRJP1.node[99].wlan.mac 	"number of received packets" 	402
scalar scenarioPRJP1.node[99].wlan.mac 	"number of collisions" 	6541
scalar scenarioPRJP1.node[99].wlan.mac 	"number of internal collisions" 	0
scalar scenarioPRJP1.node[99].wlan.mac 	"number of retry for AC 0" 	1086
scalar scenarioPRJP1.node[99].wlan.mac 	"number of retry for AC 1" 	1
scalar scenarioPRJP1.node[99].wlan.mac 	"number of retry for AC 2" 	0
scalar scenarioPRJP1.node[99].wlan.mac 	"number of retry for AC 3" 	0
scalar scenarioPRJP1.node[99].wlan.mac 	"sent and received bits" 	9610624
scalar scenarioPRJP1.node[99].wlan.mac 	"sent packet within AC 0" 	400
scalar scenarioPRJP1.node[99].wlan.mac 	"sent packet within AC 1" 	8
scalar scenarioPRJP1.node[99].wlan.mac 	"sent packet within AC 2" 	0
scalar scenarioPRJP1.node[99].wlan.mac 	"sent packet within AC 3" 	0
scalar scenarioPRJP1.node[99].wlan.mac 	"sent in TXOP " 	0
scalar scenarioPRJP1.node[99].wlan.mac 	"sentWithoutRetry AC 0" 	316
scalar scenarioPRJP1.node[99].wlan.mac 	"sentWithoutRetry AC 1" 	7
scalar scenarioPRJP1.node[99].wlan.mac 	"sentWithoutRetry AC 2" 	0
scalar scenarioPRJP1.node[99].wlan.mac 	"sentWithoutRetry AC 3" 	0
scalar scenarioPRJP1.node[99].wlan.mac 	"numGivenUp AC 0" 	145
scalar scenarioPRJP1.node[99].wlan.mac 	"numGivenUp AC 1" 	0
scalar scenarioPRJP1.node[99].wlan.mac 	"numGivenUp AC 2" 	0
scalar scenarioPRJP1.node[99].wlan.mac 	"numGivenUp AC 3" 	0
scalar scenarioPRJP1.node[99].wlan.mac 	"numDropped AC 0" 	0
scalar scenarioPRJP1.node[99].wlan.mac 	"numDropped AC 1" 	0
scalar scenarioPRJP1.node[99].wlan.mac 	"numDropped AC 2" 	0
scalar scenarioPRJP1.node[99].wlan.mac 	"numDropped AC 3" 	0
scalar scenarioPRJP1.node[99].wlan.mac 	rcvdPkFromLL:count 	33952
attr interpolationmode  none
attr source  packetReceivedFromLower
attr title  "packets received from lower layer, count"
scalar scenarioPRJP1.node[99].wlan.mac 	rcvdPkFromLL:sum(packetBytes) 	20152344
attr interpolationmode  none
attr source  packetReceivedFromLower
attr title  "packets received from lower layer, sum(packetBytes)"
scalar scenarioPRJP1.node[99].wlan.mac 	sentDownPk:count 	3028
attr interpolationmode  none
attr source  packetSentToLower
attr title  "packets sent to lower layer, count"
scalar scenarioPRJP1.node[99].wlan.mac 	sentDownPk:sum(packetBytes) 	1894600
attr interpolationmode  none
attr source  packetSentToLower
attr title  "packets sent to lower layer, sum(packetBytes)"
scalar scenarioPRJP1.node[99].wlan.mac 	rcvdPkFromHL:count 	1539
attr interpolationmode  none
attr source  packetReceivedFromUpper
attr title  "packets received from higher layer, count"
scalar scenarioPRJP1.node[99].wlan.mac 	rcvdPkFromHL:sum(packetBytes) 	1283824
attr interpolationmode  none
attr source  packetReceivedFromUpper
attr title  "packets received from higher layer, sum(packetBytes)"
scalar scenarioPRJP1.node[99].wlan.mac 	passedUpPk:count 	9466
attr interpolationmode  none
attr source  packetSentToUpper
attr title  "packets passed to higher layer, count"
scalar scenarioPRJP1.node[99].wlan.mac 	passedUpPk:sum(packetBytes) 	9252448
attr interpolationmode  none
attr source  packetSentToUpper
attr title  "packets passed to higher layer, sum(packetBytes)"
statistic scenarioPRJP1.node[99].wlan.radio 	radioChannel:histogram
field count 1
field mean 3
field stddev -nan
field sum 3
field sqrsum 9
field min 3
field max 3
attr interpolationmode  sample-hold
attr source  radioChannelChanged
attr title  "Radio channel, histogram"
bin	-INF	0
bin	2	0
bin	3	1
bin	4	0
scalar scenarioPRJP1.node[99].wlan.radio 	transmissionState:count 	12112
attr interpolationmode  sample-hold
attr source  transmissionStateChanged
attr title  "Radio transmission state, count"
scalar scenarioPRJP1.node[99].wlan.radio 	receptionState:count 	127476
attr interpolationmode  sample-hold
attr source  receptionStateChanged
attr title  "Radio reception state, count"
scalar scenarioPRJP1.node[99].wlan.radio 	radioMode:count 	6058
attr interpolationmode  sample-hold
attr source  radioModeChanged
attr title  "Radio mode, count"
statistic scenarioPRJP1.node[99].wlan.radio 	symbolErrorRate:histogram
field count 0
field mean -nan
field stddev -nan
field sum 0
field sqrsum 0
field min -nan
field max -nan
attr source  symbolErrorRate
attr title  "Symbol error rate, histogram"
bin	-INF	0
bin	-0.5	0
bin	-0.46666666666667	0
bin	-0.43333333333333	0
bin	-0.4	0
bin	-0.36666666666667	0
bin	-0.33333333333333	0
bin	-0.3	0
bin	-0.26666666666667	0
bin	-0.23333333333333	0
bin	-0.2	0
bin	-0.16666666666667	0
bin	-0.13333333333333	0
bin	-0.1	0
bin	-0.066666666666667	0
bin	-0.033333333333333	0
bin	0	0
bin	0.033333333333333	0
bin	0.066666666666667	0
bin	0.1	0
bin	0.13333333333333	0
bin	0.16666666666667	0
bin	0.2	0
bin	0.23333333333333	0
bin	0.26666666666667	0
bin	0.3	0
bin	0.33333333333333	0
bin	0.36666666666667	0
bin	0.4	0
bin	0.43333333333333	0
bin	0.46666666666667	0
bin	0.5	0
statistic scenarioPRJP1.node[99].wlan.radio 	bitErrorRate:histogram
field count 0
field mean -nan
field stddev -nan
field sum 0
field sqrsum 0
field min -nan
field max -nan
attr source  bitErrorRate
attr title  "Bit error rate, histogram"
bin	-INF	0
bin	-0.5	0
bin	-0.46666666666667	0
bin	-0.43333333333333	0
bin	-0.4	0
bin	-0.36666666666667	0
bin	-0.33333333333333	0
bin	-0.3	0
[...]
field stddev -nan
field sum 3
field sqrsum 9
field min 3
field max 3
attr interpolationmode  sample-hold
attr source  radioChannelChanged
attr title  "Radio channel, histogram"
bin	-INF	0
bin	2	0
bin	3	1
bin	4	0
scalar scenarioPRJP1.node[75].wlan.radio 	transmissionState:count 	74564
attr interpolationmode  sample-hold
attr source  transmissionStateChanged
attr title  "Radio transmission state, count"
scalar scenarioPRJP1.node[75].wlan.radio 	receptionState:count 	518429
attr interpolationmode  sample-hold
attr source  receptionStateChanged
attr title  "Radio reception state, count"
scalar scenarioPRJP1.node[75].wlan.radio 	radioMode:count 	37284
attr interpolationmode  sample-hold
attr source  radioModeChanged
attr title  "Radio mode, count"
statistic scenarioPRJP1.node[75].wlan.radio 	symbolErrorRate:histogram
field count 0
field mean -nan
field stddev -nan
field sum 0
field sqrsum 0
field min -nan
field max -nan
attr source  symbolErrorRate
attr title  "Symbol error rate, histogram"
bin	-INF	0
bin	-0.5	0
bin	-0.46666666666667	0
bin	-0.43333333333333	0
bin	-0.4	0
bin	-0.36666666666667	0
bin	-0.33333333333333	0
bin	-0.3	0
bin	-0.26666666666667	0
bin	-0.23333333333333	0
bin	-0.2	0
bin	-0.16666666666667	0
bin	-0.13333333333333	0
bin	-0.1	0
bin	-0.066666666666667	0
bin	-0.033333333333333	0
bin	0	0
bin	0.033333333333333	0
bin	0.066666666666667	0
bin	0.1	0
bin	0.13333333333333	0
bin	0.16666666666667	0
bin	0.2	0
bin	0.23333333333333	0
bin	0.26666666666667	0
bin	0.3	0
bin	0.33333333333333	0
bin	0.36666666666667	0
bin	0.4	0
bin	0.43333333333333	0
bin	0.46666666666667	0
bin	0.5	0
statistic scenarioPRJP1.node[75].wlan.radio 	bitErrorRate:histogram
field count 0
field mean -nan
field stddev -nan
field sum 0
field sqrsum 0
field min -nan
field max -nan
attr source  bitErrorRate
attr title  "Bit error rate, histogram"
bin	-INF	0
bin	-0.5	0
bin	-0.46666666666667	0
bin	-0.43333333333333	0
bin	-0.4	0
bin	-0.36666666666667	0
bin	-0.33333333333333	0
bin	-0.3	0
bin	-0.26666666666667	0
bin	-0.23333333333333	0
bin	-0.2	0
bin	-0.16666666666667	0
bin	-0.13333333333333	0
bin	-0.1	0
bin	-0.066666666666667	0
bin	-0.033333333333333	0
bin	0	0
bin	0.033333333333333	0
bin	0.066666666666667	0
bin	0.1	0
bin	0.13333333333333	0
bin	0.16666666666667	0
bin	0.2	0
bin	0.23333333333333	0
bin	0.26666666666667	0
bin	0.3	0
bin	0.33333333333333	0
bin	0.36666666666667	0
bin	0.4	0
bin	0.43333333333333	0
bin	0.46666666666667	0
bin	0.5	0
statistic scenarioPRJP1.node[75].wlan.radio 	packetErrorRate:histogram
field count 106854
field mean 0.241621815337
field stddev 0.41812941566297
field sum 25818.25745602
field sqrsum 24919.600182714
field min 0
field max 1
attr source  packetErrorRate
attr title  "Packet error rate, histogram"
bin	-INF	29240
bin	-1.2935919002643e-10	0
bin	-1.1211129802291e-10	0
bin	-9.4863406019385e-11	0
bin	-7.7615514015861e-11	0
bin	-6.0367622012336e-11	0
bin	-4.3119730008812e-11	0
bin	-2.5871838005287e-11	0
bin	-8.6239460017623e-12	58967
bin	8.6239460017623e-12	626
bin	2.5871838005287e-11	295
bin	4.3119730008812e-11	199
bin	6.0367622012336e-11	158
bin	7.7615514015861e-11	117
bin	9.4863406019385e-11	101
bin	1.1211129802291e-10	127
bin	1.2935919002643e-10	67
bin	1.4660708202996e-10	78
bin	1.6385497403348e-10	59
bin	1.8110286603701e-10	37
bin	1.9835075804053e-10	35
bin	2.1559865004406e-10	42
bin	2.3284654204758e-10	33
bin	2.5009443405111e-10	46
bin	2.6734232605463e-10	44
bin	2.8459021805816e-10	37
bin	3.0183811006168e-10	33
bin	3.1908600206521e-10	26
bin	3.3633389406873e-10	30
bin	3.5358178607225e-10	27
bin	3.7082967807578e-10	35
bin	3.880775700793e-10	16395
statistic scenarioPRJP1.node[75].wlan.radio 	minSNIR:histogram
field count 106854
field mean 10089.584982631
field stddev 129032.89724786
field sum 1078112513.7341
field sqrsum 1.789925510231e+15
field min 0.00010932113350833
field max 3722644.4862323
attr source  minSNIR
attr title  "Min SNIR, histogram"
bin	-INF	0
bin	-75391.24114198	0
bin	-65338.280809055	0
bin	-55285.320476131	0
bin	-45232.360143206	0
bin	-35179.399810282	0
bin	-25126.439477357	0
bin	-15073.479144433	0
bin	-5020.5188115085	100983
bin	5032.4415214159	2453
bin	15085.40185434	759
bin	25138.362187265	381
bin	35191.322520189	244
bin	45244.282853114	252
bin	55297.243186038	174
bin	65350.203518963	102
bin	75403.163851887	118
bin	85456.124184811	93
bin	95509.084517736	83
bin	105562.04485066	52
bin	115615.00518358	60
bin	125667.96551651	30
bin	135720.92584943	63
bin	145773.88618236	26
bin	155826.84651528	34
bin	165879.80684821	23
bin	175932.76718113	20
bin	185985.72751406	14
bin	196038.68784698	8
bin	206091.6481799	15
bin	216144.60851283	15
bin	226197.56884575	852
scalar scenarioPRJP1.node[75].lo0.lo 	droppedPkBitError:count 	0
attr interpolationmode  none
attr source  dropPkBitError
attr title  "packets dropped/bit error, count"
scalar scenarioPRJP1.node[75].lo0.lo 	droppedPkBitError:sum(packetBytes) 	0
attr interpolationmode  none
attr source  dropPkBitError
attr title  "packets dropped/bit error, sum(packetBytes)"
scalar scenarioPRJP1.node[75].lo0.lo 	rcvdPkFromHL:count 	20
attr interpolationmode  none
attr source  packetReceivedFromUpper
attr title  "packets received from higher layer, count"
scalar scenarioPRJP1.node[75].lo0.lo 	rcvdPkFromHL:sum(packetBytes) 	1120
attr interpolationmode  none
attr source  packetReceivedFromUpper
attr title  "packets received from higher layer, sum(packetBytes)"
scalar scenarioPRJP1.node[75].lo0.lo 	passedUpPk:count 	20
attr interpolationmode  none
attr source  packetSentToUpper
attr title  "packets passed to higher layer, count"
scalar scenarioPRJP1.node[75].lo0.lo 	passedUpPk:sum(packetBytes) 	1120
attr interpolationmode  none
attr source  packetSentToUpper
attr title  "packets passed to higher layer, sum(packetBytes)"
scalar scenarioPRJP1.node[95].app 	"Total sent" 	5024
scalar scenarioPRJP1.node[95].app 	"Total received" 	356
scalar scenarioPRJP1.node[95].app 	"Total deleted" 	0
scalar scenarioPRJP1.node[95].app 	dropPk:count 	0
attr interpolationmode  none
attr source  dropPk
attr title  "packets dropped, count"
scalar scenarioPRJP1.node[95].app 	dropPk:sum(packetBytes) 	0
attr interpolationmode  none
attr source  dropPk
attr title  "packets dropped, sum(packetBytes)"
scalar scenarioPRJP1.node[95].app 	outOfOrderPk:count 	0
attr interpolationmode  none
attr source  outOfOrderPk
attr title  "packets received out of order, count"
scalar scenarioPRJP1.node[95].app 	outOfOrderPk:sum(packetBytes) 	0
attr interpolationmode  none
attr source  outOfOrderPk
attr title  "packets received out of order, sum(packetBytes)"
scalar scenarioPRJP1.node[95].app 	rcvdPk:count 	356
attr interpolationmode  none
attr source  rcvdPk
attr title  "packets received, count"
scalar scenarioPRJP1.node[95].app 	rcvdPk:sum(packetBytes) 	182272
attr interpolationmode  none
attr source  rcvdPk
attr title  "packets received, sum(packetBytes)"
statistic scenarioPRJP1.node[95].app 	endToEndDelay:histogram
field count 356
field mean 0.15661755731849
field stddev 0.40434635600516
field sum 55.755850405383
field sqrsum 66.773416439908
field min 0.000891011007
field max 2.046008002903
attr interpolationmode  none
attr source  messageAge(rcvdPk)
attr title  "delay, histogram"
attr unit  s
bin	-INF	0
bin	-1.021640484941	0
bin	-0.88530055214793	0
bin	-0.74896061935487	0
bin	-0.6126206865618	0
bin	-0.47628075376873	0
bin	-0.33994082097567	0
bin	-0.2036008881826	0
bin	-0.067260955389533	289
bin	0.069078977403533	24
bin	0.2054189101966	3
bin	0.34175884298967	1
bin	0.47809877578273	2
bin	0.6144387085758	0
bin	0.75077864136887	6
bin	0.88711857416193	6
bin	1.023458506955	11
bin	1.1597984397481	1
bin	1.2961383725411	0
bin	1.4324783053342	4
bin	1.5688182381273	1
bin	1.7051581709203	3
bin	1.8414981037134	0
bin	1.9778380365065	5
bin	2.1141779692995	0
bin	2.2505179020926	0
bin	2.3868578348857	0
bin	2.5231977676787	0
bin	2.6595377004718	0
bin	2.7958776332649	0
bin	2.9322175660579	0
bin	3.068557498851	0
scalar scenarioPRJP1.node[95].app 	sentPk:count 	5024
attr interpolationmode  none
attr source  sentPk
attr title  "packets sent, count"
scalar scenarioPRJP1.node[95].app 	sentPk:sum(packetBytes) 	2572288
attr interpolationmode  none
attr source  sentPk
attr title  "packets sent, sum(packetBytes)"
scalar scenarioPRJP1.node[95].udp 	droppedPkBadChecksum:count 	0
attr interpolationmode  none
attr title  "packets dropped (checksum error), count"
scalar scenarioPRJP1.node[95].udp 	droppedPkWrongPort:count 	0
attr interpolationmode  none
attr title  "packets dropped (wrong port), count"
scalar scenarioPRJP1.node[95].udp 	passedUpPk:count 	356
attr interpolationmode  none
attr title  "packets passed up, count"
scalar scenarioPRJP1.node[95].udp 	rcvdPk:count 	356
attr interpolationmode  none
attr source  rcvdPk
attr title  "packets received, count"
scalar scenarioPRJP1.node[95].udp 	rcvdPk:sum(packetBytes) 	185120
attr interpolationmode  none
attr source  rcvdPk
attr title  "packets received, sum(packetBytes)"
scalar scenarioPRJP1.node[95].udp 	sentPk:count 	5024
attr interpolationmode  none
attr source  sentPk
attr title  "packets sent, count"
scalar scenarioPRJP1.node[95].udp 	sentPk:sum(packetBytes) 	2612480
attr interpolationmode  none
attr source  sentPk
attr title  "packets sent, sum(packetBytes)"
scalar scenarioPRJP1.node[95].networkLayer.arp 	failedARPResolution:count 	21
attr title  "ARP failed resolutions, count"
scalar scenarioPRJP1.node[95].networkLayer.arp 	completedARPResolution:count 	1027
attr title  "ARP completed resolutions, count"
scalar scenarioPRJP1.node[95].networkLayer.arp 	initiatedARPResolution:count 	129
attr title  "ARP initiated resolutions, count"
scalar scenarioPRJP1.node[95].networkLayer.arp 	sentReply:count 	103
attr title  "ARP replies sent, count"
scalar scenarioPRJP1.node[95].networkLayer.arp 	sentReq:count 	217
attr title  "ARP request sent, count"
scalar scenarioPRJP1.node[95].mobility 	startTime 	9.7
scalar scenarioPRJP1.node[95].mobility 	totalTime 	1890.3
scalar scenarioPRJP1.node[95].mobility 	stopTime 	1900
scalar scenarioPRJP1.node[95].mobility 	minSpeed 	2.4754658904999e-13
scalar scenarioPRJP1.node[95].mobility 	maxSpeed 	19.769122905989
scalar scenarioPRJP1.node[95].mobility 	totalDistance 	17544.401186234
scalar scenarioPRJP1.node[95].mobility 	totalCO2Emission 	5393.5843427879
scalar scenarioPRJP1.node[95].wlan.mgmt 	dataQueueLen:max 	3
attr interpolationmode  sample-hold
attr title  "data queue length, max"
scalar scenarioPRJP1.node[95].wlan.mgmt 	dataQueueLen:timeavg 	0
attr interpolationmode  sample-hold
attr title  "data queue length, timeavg"
scalar scenarioPRJP1.node[95].wlan.mgmt 	dropPkByQueue:count 	0
attr interpolationmode  none
attr source  dropPkByQueue
attr title  "packets dropped by queue, count"
scalar scenarioPRJP1.node[95].wlan.mgmt 	dropPkByQueue:sum(packetBytes) 	0
attr interpolationmode  none
attr source  dropPkByQueue
attr title  "packets dropped by queue, sum(packetBytes)"
scalar scenarioPRJP1.node[95].wlan.mac 	"number of received packets" 	2222
scalar scenarioPRJP1.node[95].wlan.mac 	"number of collisions" 	23758
scalar scenarioPRJP1.node[95].wlan.mac 	"number of internal collisions" 	4
scalar scenarioPRJP1.node[95].wlan.mac 	"number of retry for AC 0" 	5149
scalar scenarioPRJP1.node[95].wlan.mac 	"number of retry for AC 1" 	35
scalar scenarioPRJP1.node[95].wlan.mac 	"number of retry for AC 2" 	0
scalar scenarioPRJP1.node[95].wlan.mac 	"number of retry for AC 3" 	0
scalar scenarioPRJP1.node[95].wlan.mac 	"sent and received bits" 	64012640
scalar scenarioPRJP1.node[95].wlan.mac 	"sent packet within AC 0" 	2057
scalar scenarioPRJP1.node[95].wlan.mac 	"sent packet within AC 1" 	130
scalar scenarioPRJP1.node[95].wlan.mac 	"sent packet within AC 2" 	0
scalar scenarioPRJP1.node[95].wlan.mac 	"sent packet within AC 3" 	0
scalar scenarioPRJP1.node[95].wlan.mac 	"sent in TXOP " 	0
scalar scenarioPRJP1.node[95].wlan.mac 	"sentWithoutRetry AC 0" 	1657
scalar scenarioPRJP1.node[95].wlan.mac 	"sentWithoutRetry AC 1" 	120
scalar scenarioPRJP1.node[95].wlan.mac 	"sentWithoutRetry AC 2" 	0
scalar scenarioPRJP1.node[95].wlan.mac 	"sentWithoutRetry AC 3" 	0
scalar scenarioPRJP1.node[95].wlan.mac 	"numGivenUp AC 0" 	646
scalar scenarioPRJP1.node[95].wlan.mac 	"numGivenUp AC 1" 	2
scalar scenarioPRJP1.node[95].wlan.mac 	"numGivenUp AC 2" 	0
scalar scenarioPRJP1.node[95].wlan.mac 	"numGivenUp AC 3" 	0
scalar scenarioPRJP1.node[95].wlan.mac 	"numDropped AC 0" 	0
scalar scenarioPRJP1.node[95].wlan.mac 	"numDropped AC 1" 	0
scalar scenarioPRJP1.node[95].wlan.mac 	"numDropped AC 2" 	0
scalar scenarioPRJP1.node[95].wlan.mac 	"numDropped AC 3" 	0
scalar scenarioPRJP1.node[95].wlan.mac 	rcvdPkFromLL:count 	105490
attr interpolationmode  none
attr source  packetReceivedFromLower
attr title  "packets received from lower layer, count"
scalar scenarioPRJP1.node[95].wlan.mac 	rcvdPkFromLL:sum(packetBytes) 	69833738
attr interpolationmode  none
attr source  packetReceivedFromLower
attr title  "packets received from lower layer, sum(packetBytes)"
scalar scenarioPRJP1.node[95].wlan.mac 	sentDownPk:count 	17028
attr interpolationmode  none
attr source  packetSentToLower
attr title  "packets sent to lower layer, count"
scalar scenarioPRJP1.node[95].wlan.mac 	sentDownPk:sum(packetBytes) 	11316412
attr interpolationmode  none
attr source  packetSentToLower
attr title  "packets sent to lower layer, sum(packetBytes)"
scalar scenarioPRJP1.node[95].wlan.mac 	rcvdPkFromHL:count 	9626
attr interpolationmode  none
attr source  packetReceivedFromUpper
attr title  "packets received from higher layer, count"
scalar scenarioPRJP1.node[95].wlan.mac 	rcvdPkFromHL:sum(packetBytes) 	8368740
attr interpolationmode  none
attr source  packetReceivedFromUpper
attr title  "packets received from higher layer, sum(packetBytes)"
scalar scenarioPRJP1.node[95].wlan.mac 	passedUpPk:count 	38859
attr interpolationmode  none
attr source  packetSentToUpper
attr title  "packets passed to higher layer, count"
scalar scenarioPRJP1.node[95].wlan.mac 	passedUpPk:sum(packetBytes) 	38169628
attr interpolationmode  none
attr source  packetSentToUpper
attr title  "packets passed to higher layer, sum(packetBytes)"
statistic scenarioPRJP1.node[95].wlan.radio 	radioChannel:histogram
field count 1
field mean 3
field stddev -nan
field sum 3
field sqrsum 9
field min 3
field max 3
attr interpolationmode  sample-hold
attr source  radioChannelChanged
attr title  "Radio channel, histogram"
bin	-INF	0
bin	2	0
bin	3	1
bin	4	0
scalar scenarioPRJP1.node[95].wlan.radio 	transmissionState:count 	68112
attr interpolationmode  sample-hold
attr source  transmissionStateChanged
attr title  "Radio transmission state, count"
scalar scenarioPRJP1.node[95].wlan.radio 	receptionState:count 	489850
attr interpolationmode  sample-hold
attr source  receptionStateChanged
attr title  "Radio reception state, count"
scalar scenarioPRJP1.node[95].wlan.radio 	radioMode:count 	34058
attr interpolationmode  sample-hold
attr source  radioModeChanged
attr title  "Radio mode, count"
statistic scenarioPRJP1.node[95].wlan.radio 	symbolErrorRate:histogram
field count 0
field mean -nan
field stddev -nan
field sum 0
field sqrsum 0
field min -nan
field max -nan
attr source  symbolErrorRate
attr title  "Symbol error rate, histogram"
bin	-INF	0
bin	-0.5	0
bin	-0.46666666666667	0
bin	-0.43333333333333	0
bin	-0.4	0
bin	-0.36666666666667	0
bin	-0.33333333333333	0
bin	-0.3	0
bin	-0.26666666666667	0
bin	-0.23333333333333	0
bin	-0.2	0
bin	-0.16666666666667	0
bin	-0.13333333333333	0
bin	-0.1	0
bin	-0.066666666666667	0
bin	-0.033333333333333	0
bin	0	0
bin	0.033333333333333	0
bin	0.066666666666667	0
bin	0.1	0
bin	0.13333333333333	0
bin	0.16666666666667	0
bin	0.2	0
bin	0.23333333333333	0
bin	0.26666666666667	0
bin	0.3	0
bin	0.33333333333333	0
bin	0.36666666666667	0
bin	0.4	0
bin	0.43333333333333	0
bin	0.46666666666667	0
bin	0.5	0
statistic scenarioPRJP1.node[95].wlan.radio 	bitErrorRate:histogram
field count 0
field mean -nan
field stddev -nan
field sum 0
field sqrsum 0
field min -nan
field max -nan
attr source  bitErrorRate
attr title  "Bit error rate, histogram"
bin	-INF	0
bin	-0.5	0
bin	-0.46666666666667	0
bin	-0.43333333333333	0
bin	-0.4	0
bin	-0.36666666666667	0
bin	-0.33333333333333	0
bin	-0.3	0
bin	-0.26666666666667	0
bin	-0.23333333333333	0
bin	-0.2	0
bin	-0.16666666666667	0
bin	-0.13333333333333	0
bin	-0.1	0
bin	-0.066666666666667	0
bin	-0.033333333333333	0
bin	0	0
bin	0.033333333333333	0
bin	0.066666666666667	0
bin	0.1	0
bin	0.13333333333333	0
bin	0.16666666666667	0
bin	0.2	0
bin	0.23333333333333	0
bin	0.26666666666667	0
bin	0.3	0
bin	0.33333333333333	0
bin	0.36666666666667	0
bin	0.4	0
bin	0.43333333333333	0
bin	0.46666666666667	0
bin	0.5	0
statistic scenarioPRJP1.node[95].wlan.radio 	packetErrorRate:histogram
field count 105490
field mean 0.21072208883273
field stddev 0.39838851397286
field sum 22229.073150964
field sqrsum 21426.675430609
field min 0
field max 1
attr source  packetErrorRate
attr title  "Packet error rate, histogram"
bin	-INF	30491
bin	-9.4768637382003e-13	0
bin	-8.2132819064403e-13	0
bin	-6.9497000746802e-13	0
bin	-5.6861182429202e-13	0
bin	-4.4225364111602e-13	0
bin	-3.1589545794001e-13	0
bin	-1.8953727476401e-13	0
bin	-6.3179091588002e-14	61126
bin	6.3179091588002e-14	78
bin	1.8953727476401e-13	44
bin	3.1589545794001e-13	26
bin	4.4225364111602e-13	220
bin	5.6861182429202e-13	18
bin	6.9497000746802e-13	12
bin	8.2132819064403e-13	239
bin	9.4768637382003e-13	104
bin	1.074044556996e-12	10
bin	1.200402740172e-12	13
bin	1.326760923348e-12	8
bin	1.4531191065241e-12	63
bin	1.5794772897001e-12	6
bin	1.7058354728761e-12	8
bin	1.8321936560521e-12	107
bin	1.9585518392281e-12	62
bin	2.0849100224041e-12	7
bin	2.2112682055801e-12	4
bin	2.3376263887561e-12	5
bin	2.4639845719321e-12	32
bin	2.5903427551081e-12	8
bin	2.7167009382841e-12	4
bin	2.8430591214601e-12	12795
statistic scenarioPRJP1.node[95].wlan.radio 	minSNIR:histogram
field count 105490
field mean 16397.439697358
field stddev 180527.00329473
field sum 1729765913.6743
field sqrsum 3.4662501281816e+15
field min 0.00011530272555872
field max 3899713.689198
attr source  minSNIR
attr title  "Min SNIR, histogram"
bin	-INF	0
bin	-38243.214367157	0
bin	-33143.197711296	0
bin	-28043.181055435	0
bin	-22943.164399573	0
bin	-17843.147743712	0
bin	-12743.131087851	0
bin	-7643.1144319893	0
bin	-2543.097776128	94475
bin	2556.9188797333	3813
bin	7656.9355355946	1727
bin	12756.952191456	873
bin	17856.968847317	475
bin	22956.985503179	406
bin	28057.00215904	269
bin	33157.018814901	172
bin	38257.035470763	241
bin	43357.052126624	266
bin	48457.068782485	323
bin	53557.085438346	124
bin	58657.102094208	96
bin	63757.118750069	53
bin	68857.13540593	44
bin	73957.152061792	123
bin	79057.168717653	46
bin	84157.185373514	233
bin	89257.202029376	39
bin	94357.218685237	69
bin	99457.235341098	53
bin	104557.25199696	32
bin	109657.26865282	33
bin	114757.28530868	1505
scalar scenarioPRJP1.node[95].lo0.lo 	droppedPkBitError:count 	0
attr interpolationmode  none
attr source  dropPkBitError
attr title  "packets dropped/bit error, count"
scalar scenarioPRJP1.node[95].lo0.lo 	droppedPkBitError:sum(packetBytes) 	0
attr interpolationmode  none
attr source  dropPkBitError
attr title  "packets dropped/bit error, sum(packetBytes)"
scalar scenarioPRJP1.node[95].lo0.lo 	rcvdPkFromHL:count 	14
attr interpolationmode  none
attr source  packetReceivedFromUpper
attr title  "packets received from higher layer, count"
scalar scenarioPRJP1.node[95].lo0.lo 	rcvdPkFromHL:sum(packetBytes) 	784
attr interpolationmode  none
attr source  packetReceivedFromUpper
attr title  "packets received from higher layer, sum(packetBytes)"
scalar scenarioPRJP1.node[95].lo0.lo 	passedUpPk:count 	14
attr interpolationmode  none
attr source  packetSentToUpper
attr title  "packets passed to higher layer, count"
scalar scenarioPRJP1.node[95].lo0.lo 	passedUpPk:sum(packetBytes) 	784
attr interpolationmode  none
attr source  packetSentToUpper
attr title  "packets passed to higher layer, sum(packetBytes)"
