version 2
run OLSR-ETX-FS-100n-18-20150729-09:33:19-7489
attr configname OLSR-ETX-FS-100n
attr datetime 20150729-09:33:19
attr experiment OLSR-ETX-FS-100n
attr inifile omnetpp.ini
attr iterationvars ""
attr iterationvars2 $repetition=18
attr measurement ""
attr network Prj_Part1_propag.scenarioPRJP1
attr processid 7489
attr repetition 18
attr replication #18
attr resultdir results
attr runnumber 18
attr seedset 18

scalar scenarioPRJP1.node[58].app 	"Total sent" 	367
scalar scenarioPRJP1.node[58].app 	"Total received" 	19
scalar scenarioPRJP1.node[58].app 	"Total deleted" 	0
scalar scenarioPRJP1.node[58].app 	dropPk:count 	0
attr interpolationmode  none
attr source  dropPk
attr title  "packets dropped, count"
scalar scenarioPRJP1.node[58].app 	dropPk:sum(packetBytes) 	0
attr interpolationmode  none
attr source  dropPk
attr title  "packets dropped, sum(packetBytes)"
scalar scenarioPRJP1.node[58].app 	outOfOrderPk:count 	0
attr interpolationmode  none
attr source  outOfOrderPk
attr title  "packets received out of order, count"
scalar scenarioPRJP1.node[58].app 	outOfOrderPk:sum(packetBytes) 	0
attr interpolationmode  none
attr source  outOfOrderPk
attr title  "packets received out of order, sum(packetBytes)"
scalar scenarioPRJP1.node[58].app 	rcvdPk:count 	19
attr interpolationmode  none
attr source  rcvdPk
attr title  "packets received, count"
scalar scenarioPRJP1.node[58].app 	rcvdPk:sum(packetBytes) 	9728
attr interpolationmode  none
attr source  rcvdPk
attr title  "packets received, sum(packetBytes)"
statistic scenarioPRJP1.node[58].app 	endToEndDelay:histogram
field count 19
field mean 0.11616139314474
field stddev 0.31931829218326
field sum 2.20706646975
field sqrsum 2.0917310069003
field min 0.000945244203
field max 1.033461073545
attr interpolationmode  none
attr source  messageAge(rcvdPk)
attr title  "delay, histogram"
attr unit  s
bin	-INF	0
bin	-0.515312670468	0
bin	-0.4464782818452	0
bin	-0.3776438932224	0
bin	-0.3088095045996	0
bin	-0.2399751159768	0
bin	-0.171140727354	0
bin	-0.1023063387312	0
bin	-0.0334719501084	16
bin	0.0353624385144	1
bin	0.1041968271372	0
bin	0.17303121576	0
bin	0.2418656043828	0
bin	0.3106999930056	0
bin	0.3795343816284	0
bin	0.4483687702512	0
bin	0.517203158874	0
bin	0.5860375474968	0
bin	0.6548719361196	0
bin	0.7237063247424	0
bin	0.7925407133652	0
bin	0.861375101988	0
bin	0.9302094906108	0
bin	0.9990438792336	2
bin	1.0678782678564	0
bin	1.1367126564792	0
bin	1.205547045102	0
bin	1.2743814337248	0
bin	1.3432158223476	0
bin	1.4120502109704	0
bin	1.4808845995932	0
bin	1.549718988216	0
scalar scenarioPRJP1.node[58].app 	sentPk:count 	367
attr interpolationmode  none
attr source  sentPk
attr title  "packets sent, count"
scalar scenarioPRJP1.node[58].app 	sentPk:sum(packetBytes) 	187904
attr interpolationmode  none
attr source  sentPk
attr title  "packets sent, sum(packetBytes)"
scalar scenarioPRJP1.node[58].udp 	droppedPkBadChecksum:count 	0
attr interpolationmode  none
attr title  "packets dropped (checksum error), count"
scalar scenarioPRJP1.node[58].udp 	droppedPkWrongPort:count 	0
attr interpolationmode  none
attr title  "packets dropped (wrong port), count"
scalar scenarioPRJP1.node[58].udp 	passedUpPk:count 	19
attr interpolationmode  none
attr title  "packets passed up, count"
scalar scenarioPRJP1.node[58].udp 	rcvdPk:count 	19
attr interpolationmode  none
attr source  rcvdPk
attr title  "packets received, count"
scalar scenarioPRJP1.node[58].udp 	rcvdPk:sum(packetBytes) 	9880
attr interpolationmode  none
attr source  rcvdPk
attr title  "packets received, sum(packetBytes)"
scalar scenarioPRJP1.node[58].udp 	sentPk:count 	367
attr interpolationmode  none
attr source  sentPk
attr title  "packets sent, count"
scalar scenarioPRJP1.node[58].udp 	sentPk:sum(packetBytes) 	190840
attr interpolationmode  none
attr source  sentPk
attr title  "packets sent, sum(packetBytes)"
scalar scenarioPRJP1.node[58].networkLayer.arp 	failedARPResolution:count 	2
attr title  "ARP failed resolutions, count"
scalar scenarioPRJP1.node[58].networkLayer.arp 	completedARPResolution:count 	80
attr title  "ARP completed resolutions, count"
scalar scenarioPRJP1.node[58].networkLayer.arp 	initiatedARPResolution:count 	16
attr title  "ARP initiated resolutions, count"
scalar scenarioPRJP1.node[58].networkLayer.arp 	sentReply:count 	7
attr title  "ARP replies sent, count"
scalar scenarioPRJP1.node[58].networkLayer.arp 	sentReq:count 	22
attr title  "ARP request sent, count"
scalar scenarioPRJP1.node[58].mobility 	startTime 	5
scalar scenarioPRJP1.node[58].mobility 	totalTime 	154.2
scalar scenarioPRJP1.node[58].mobility 	stopTime 	159.3
scalar scenarioPRJP1.node[58].mobility 	minSpeed 	2.4761356202849e-13
scalar scenarioPRJP1.node[58].mobility 	maxSpeed 	18.712875150107
scalar scenarioPRJP1.node[58].mobility 	totalDistance 	1483.5587866078
scalar scenarioPRJP1.node[58].mobility 	totalCO2Emission 	470.33494742749
scalar scenarioPRJP1.node[58].wlan.mgmt 	dataQueueLen:max 	0
attr interpolationmode  sample-hold
attr title  "data queue length, max"
scalar scenarioPRJP1.node[58].wlan.mgmt 	dataQueueLen:timeavg 	0
attr interpolationmode  sample-hold
attr title  "data queue length, timeavg"
scalar scenarioPRJP1.node[58].wlan.mgmt 	dropPkByQueue:count 	0
attr interpolationmode  none
attr source  dropPkByQueue
attr title  "packets dropped by queue, count"
scalar scenarioPRJP1.node[58].wlan.mgmt 	dropPkByQueue:sum(packetBytes) 	0
attr interpolationmode  none
attr source  dropPkByQueue
attr title  "packets dropped by queue, sum(packetBytes)"
scalar scenarioPRJP1.node[58].wlan.mac 	"number of received packets" 	123
scalar scenarioPRJP1.node[58].wlan.mac 	"number of collisions" 	549
scalar scenarioPRJP1.node[58].wlan.mac 	"number of internal collisions" 	0
scalar scenarioPRJP1.node[58].wlan.mac 	"number of retry for AC 0" 	150
scalar scenarioPRJP1.node[58].wlan.mac 	"number of retry for AC 1" 	0
scalar scenarioPRJP1.node[58].wlan.mac 	"number of retry for AC 2" 	0
scalar scenarioPRJP1.node[58].wlan.mac 	"number of retry for AC 3" 	0
scalar scenarioPRJP1.node[58].wlan.mac 	"sent and received bits" 	3620512
scalar scenarioPRJP1.node[58].wlan.mac 	"sent packet within AC 0" 	88
scalar scenarioPRJP1.node[58].wlan.mac 	"sent packet within AC 1" 	1
scalar scenarioPRJP1.node[58].wlan.mac 	"sent packet within AC 2" 	0
scalar scenarioPRJP1.node[58].wlan.mac 	"sent packet within AC 3" 	0
scalar scenarioPRJP1.node[58].wlan.mac 	"sent in TXOP " 	0
scalar scenarioPRJP1.node[58].wlan.mac 	"sentWithoutRetry AC 0" 	78
scalar scenarioPRJP1.node[58].wlan.mac 	"sentWithoutRetry AC 1" 	1
scalar scenarioPRJP1.node[58].wlan.mac 	"sentWithoutRetry AC 2" 	0
scalar scenarioPRJP1.node[58].wlan.mac 	"sentWithoutRetry AC 3" 	0
scalar scenarioPRJP1.node[58].wlan.mac 	"numGivenUp AC 0" 	22
scalar scenarioPRJP1.node[58].wlan.mac 	"numGivenUp AC 1" 	0
scalar scenarioPRJP1.node[58].wlan.mac 	"numGivenUp AC 2" 	0
scalar scenarioPRJP1.node[58].wlan.mac 	"numGivenUp AC 3" 	0
scalar scenarioPRJP1.node[58].wlan.mac 	"numDropped AC 0" 	0
scalar scenarioPRJP1.node[58].wlan.mac 	"numDropped AC 1" 	0
scalar scenarioPRJP1.node[58].wlan.mac 	"numDropped AC 2" 	0
scalar scenarioPRJP1.node[58].wlan.mac 	"numDropped AC 3" 	0
scalar scenarioPRJP1.node[58].wlan.mac 	rcvdPkFromLL:count 	6485
attr interpolationmode  none
attr source  packetReceivedFromLower
attr title  "packets received from lower layer, count"
scalar scenarioPRJP1.node[58].wlan.mac 	rcvdPkFromLL:sum(packetBytes) 	3972184
attr interpolationmode  none
attr source  packetReceivedFromLower
attr title  "packets received from lower layer, sum(packetBytes)"
scalar scenarioPRJP1.node[58].wlan.mac 	sentDownPk:count 	792
attr interpolationmode  none
attr source  packetSentToLower
attr title  "packets sent to lower layer, count"
scalar scenarioPRJP1.node[58].wlan.mac 	sentDownPk:sum(packetBytes) 	545166
attr interpolationmode  none
attr source  packetSentToLower
attr title  "packets sent to lower layer, sum(packetBytes)"
scalar scenarioPRJP1.node[58].wlan.mac 	rcvdPkFromHL:count 	519
attr interpolationmode  none
attr source  packetReceivedFromUpper
attr title  "packets received from higher layer, count"
scalar scenarioPRJP1.node[58].wlan.mac 	rcvdPkFromHL:sum(packetBytes) 	464212
attr interpolationmode  none
attr source  packetReceivedFromUpper
attr title  "packets received from higher layer, sum(packetBytes)"
scalar scenarioPRJP1.node[58].wlan.mac 	passedUpPk:count 	2652
attr interpolationmode  none
attr source  packetSentToUpper
attr title  "packets passed to higher layer, count"
scalar scenarioPRJP1.node[58].wlan.mac 	passedUpPk:sum(packetBytes) 	2628608
attr interpolationmode  none
attr source  packetSentToUpper
attr title  "packets passed to higher layer, sum(packetBytes)"
statistic scenarioPRJP1.node[58].wlan.radio 	radioChannel:histogram
field count 1
field mean 3
field stddev -nan
field sum 3
field sqrsum 9
field min 3
field max 3
attr interpolationmode  sample-hold
attr source  radioChannelChanged
attr title  "Radio channel, histogram"
bin	-INF	0
bin	2	0
bin	3	1
bin	4	0
scalar scenarioPRJP1.node[58].wlan.radio 	transmissionState:count 	3168
attr interpolationmode  sample-hold
attr source  transmissionStateChanged
attr title  "Radio transmission state, count"
scalar scenarioPRJP1.node[58].wlan.radio 	receptionState:count 	14603
attr interpolationmode  sample-hold
attr source  receptionStateChanged
attr title  "Radio reception state, count"
scalar scenarioPRJP1.node[58].wlan.radio 	radioMode:count 	1586
attr interpolationmode  sample-hold
attr source  radioModeChanged
attr title  "Radio mode, count"
statistic scenarioPRJP1.node[58].wlan.radio 	symbolErrorRate:histogram
field count 0
field mean -nan
field stddev -nan
field sum 0
field sqrsum 0
field min -nan
field max -nan
attr source  symbolErrorRate
attr title  "Symbol error rate, histogram"
bin	-INF	0
bin	-0.5	0
bin	-0.46666666666667	0
bin	-0.43333333333333	0
bin	-0.4	0
bin	-0.36666666666667	0
bin	-0.33333333333333	0
bin	-0.3	0
bin	-0.26666666666667	0
bin	-0.23333333333333	0
bin	-0.2	0
bin	-0.16666666666667	0
bin	-0.13333333333333	0
bin	-0.1	0
bin	-0.066666666666667	0
bin	-0.033333333333333	0
bin	0	0
bin	0.033333333333333	0
bin	0.066666666666667	0
bin	0.1	0
bin	0.13333333333333	0
bin	0.16666666666667	0
bin	0.2	0
bin	0.23333333333333	0
bin	0.26666666666667	0
bin	0.3	0
bin	0.33333333333333	0
bin	0.36666666666667	0
bin	0.4	0
bin	0.43333333333333	0
bin	0.46666666666667	0
bin	0.5	0
statistic scenarioPRJP1.node[58].wlan.radio 	bitErrorRate:histogram
field count 0
field mean -nan
field stddev -nan
field sum 0
field sqrsum 0
field min -nan
field max -nan
attr source  bitErrorRate
attr title  "Bit error rate, histogram"
bin	-INF	0
bin	-0.5	0
bin	-0.46666666666667	0
bin	-0.43333333333333	0
bin	-0.4	0
bin	-0.36666666666667	0
bin	-0.33333333333333	0
bin	-0.3	0
bin	-0.26666666666667	0
bin	-0.23333333333333	0
bin	-0.2	0
bin	-0.16666666666667	0
bin	-0.13333333333333	0
bin	-0.1	0
bin	-0.066666666666667	0
bin	-0.033333333333333	0
bin	0	0
bin	0.033333333333333	0
bin	0.066666666666667	0
bin	0.1	0
bin	0.13333333333333	0
bin	0.16666666666667	0
bin	0.2	0
bin	0.23333333333333	0
bin	0.26666666666667	0
bin	0.3	0
bin	0.33333333333333	0
bin	0.36666666666667	0
bin	0.4	0
bin	0.43333333333333	0
bin	0.46666666666667	0
bin	0.5	0
statistic scenarioPRJP1.node[58].wlan.radio 	packetErrorRate:histogram
field count 6485
field mean 0.079440431677469
field stddev 0.26197411972464
field sum 515.17119942838
field sqrsum 485.92519157564
field min 0
field max 1
attr source  packetErrorRate
attr title  "Packet error rate, histogram"
bin	-INF	0
bin	-0.5	0
bin	-0.46666666666667	0
bin	-0.43333333333333	0
bin	-0.4	0
bin	-0.36666666666667	0
bin	-0.33333333333333	0
bin	-0.3	0
bin	-0.26666666666667	0
bin	-0.23333333333333	0
bin	-0.2	0
bin	-0.16666666666667	0
bin	-0.13333333333333	0
bin	-0.1	0
bin	-0.066666666666667	0
bin	-0.033333333333333	0
bin	0	5847
bin	0.033333333333333	33
bin	0.066666666666667	26
bin	0.1	15
bin	0.13333333333333	10
bin	0.16666666666667	4
bin	0.2	9
bin	0.23333333333333	4
bin	0.26666666666667	4
bin	0.3	5
bin	0.33333333333333	1
bin	0.36666666666667	6
bin	0.4	5
bin	0.43333333333333	4
bin	0.46666666666667	5
bin	0.5	507
statistic scenarioPRJP1.node[58].wlan.radio 	minSNIR:histogram
field count 6485
field mean 3145.9005926707
field stddev 25766.85068064
field sum 20401165.343469
field sqrsum 4369106009630.7
field min 0.0006367860345617
field max 753239.62974808
attr source  minSNIR
attr title  "Min SNIR, histogram"
bin	-INF	0
bin	-17673.233230052	0
bin	-15315.55021608	0
bin	-12957.867202108	0
bin	-10600.184188136	0
bin	-8242.5011741645	0
bin	-5884.8181601927	0
bin	-3527.1351462208	0
bin	-1169.452132249	5576
bin	1188.2308817228	339
bin	3545.9138956946	143
bin	5903.5969096664	76
bin	8261.2799236382	36
bin	10618.96293761	21
bin	12976.645951582	19
bin	15334.328965554	31
bin	17692.011979525	15
bin	20049.694993497	40
bin	22407.378007469	6
bin	24765.061021441	12
bin	27122.744035413	21
bin	29480.427049385	5
bin	31838.110063356	13
bin	34195.793077328	11
bin	36553.4760913	4
bin	38911.159105272	4
bin	41268.842119244	1
bin	43626.525133215	3
bin	45984.208147187	11
bin	48341.891161159	13
bin	50699.574175131	8
bin	53057.257189103	77
scalar scenarioPRJP1.node[58].lo0.lo 	droppedPkBitError:count 	0
attr interpolationmode  none
attr source  dropPkBitError
attr title  "packets dropped/bit error, count"
scalar scenarioPRJP1.node[58].lo0.lo 	droppedPkBitError:sum(packetBytes) 	0
attr interpolationmode  none
attr source  dropPkBitError
attr title  "packets dropped/bit error, sum(packetBytes)"
scalar scenarioPRJP1.node[58].lo0.lo 	rcvdPkFromHL:count 	1
attr interpolationmode  none
attr source  packetReceivedFromUpper
attr title  "packets received from higher layer, count"
scalar scenarioPRJP1.node[58].lo0.lo 	rcvdPkFromHL:sum(packetBytes) 	56
attr interpolationmode  none
attr source  packetReceivedFromUpper
attr title  "packets received from higher layer, sum(packetBytes)"
scalar scenarioPRJP1.node[58].lo0.lo 	passedUpPk:count 	1
attr interpolationmode  none
attr source  packetSentToUpper
attr title  "packets passed to higher layer, count"
scalar scenarioPRJP1.node[58].lo0.lo 	passedUpPk:sum(packetBytes) 	56
attr interpolationmode  none
attr source  packetSentToUpper
attr title  "packets passed to higher layer, sum(packetBytes)"
scalar scenarioPRJP1.node[61].app 	"Total sent" 	371
scalar scenarioPRJP1.node[61].app 	"Total received" 	28
scalar scenarioPRJP1.node[61].app 	"Total deleted" 	0
scalar scenarioPRJP1.node[61].app 	dropPk:count 	0
attr interpolationmode  none
attr source  dropPk
attr title  "packets dropped, count"
scalar scenarioPRJP1.node[61].app 	dropPk:sum(packetBytes) 	0
attr interpolationmode  none
attr source  dropPk
attr title  "packets dropped, sum(packetBytes)"
scalar scenarioPRJP1.node[61].app 	outOfOrderPk:count 	0
attr interpolationmode  none
attr source  outOfOrderPk
attr title  "packets received out of order, count"
scalar scenarioPRJP1.node[61].app 	outOfOrderPk:sum(packetBytes) 	0
attr interpolationmode  none
attr source  outOfOrderPk
attr title  "packets received out of order, sum(packetBytes)"
scalar scenarioPRJP1.node[61].app 	rcvdPk:count 	28
attr interpolationmode  none
attr source  rcvdPk
attr title  "packets received, count"
scalar scenarioPRJP1.node[61].app 	rcvdPk:sum(packetBytes) 	14336
attr interpolationmode  none
attr source  rcvdPk
attr title  "packets received, sum(packetBytes)"
statistic scenarioPRJP1.node[61].app 	endToEndDelay:histogram
field count 28
field mean 0.09333706453075
field stddev 0.26646405438219
field sum 2.613437806861
field sqrsum 2.1610141047265
field min 0.001010018919
field max 1.021939244398
attr interpolationmode  none
attr source  messageAge(rcvdPk)
attr title  "delay, histogram"
attr unit  s
bin	-INF	0
bin	-0.5094545938205	0
bin	-0.44139264545523	0
bin	-0.37333069708997	0
bin	-0.3052687487247	0
bin	-0.23720680035943	0
bin	-0.16914485199417	0
bin	-0.1010829036289	0
bin	-0.033020955263633	22
bin	0.035040993101633	3
bin	0.1031029414669	0
bin	0.17116488983217	0
bin	0.23922683819743	0
bin	0.3072887865627	1
bin	0.37535073492797	0
bin	0.44341268329323	0
bin	0.5114746316585	0
bin	0.57953658002377	0
bin	0.64759852838903	0
bin	0.7156604767543	0
bin	0.78372242511957	0
bin	0.85178437348483	0
bin	0.9198463218501	0
bin	0.98790827021537	2
bin	1.0559702185806	0
bin	1.1240321669459	0
bin	1.1920941153112	0
bin	1.2601560636764	0
bin	1.3282180120417	0
bin	1.396279960407	0
bin	1.4643419087722	0
bin	1.5324038571375	0
scalar scenarioPRJP1.node[61].app 	sentPk:count 	371
attr interpolationmode  none
attr source  sentPk
attr title  "packets sent, count"
scalar scenarioPRJP1.node[61].app 	sentPk:sum(packetBytes) 	189952
attr interpolationmode  none
attr source  sentPk
attr title  "packets sent, sum(packetBytes)"
scalar scenarioPRJP1.node[61].udp 	droppedPkBadChecksum:count 	0
attr interpolationmode  none
attr title  "packets dropped (checksum error), count"
scalar scenarioPRJP1.node[61].udp 	droppedPkWrongPort:count 	0
attr interpolationmode  none
attr title  "packets dropped (wrong port), count"
scalar scenarioPRJP1.node[61].udp 	passedUpPk:count 	28
attr interpolationmode  none
attr title  "packets passed up, count"
scalar scenarioPRJP1.node[61].udp 	rcvdPk:count 	28
attr interpolationmode  none
attr source  rcvdPk
attr title  "packets received, count"
scalar scenarioPRJP1.node[61].udp 	rcvdPk:sum(packetBytes) 	14560
attr interpolationmode  none
attr source  rcvdPk
attr title  "packets received, sum(packetBytes)"
scalar scenarioPRJP1.node[61].udp 	sentPk:count 	371
attr interpolationmode  none
attr source  sentPk
attr title  "packets sent, count"
scalar scenarioPRJP1.node[61].udp 	sentPk:sum(packetBytes) 	192920
attr interpolationmode  none
attr source  sentPk
attr title  "packets sent, sum(packetBytes)"
scalar scenarioPRJP1.node[61].networkLayer.arp 	failedARPResolution:count 	1
attr title  "ARP failed resolutions, count"
scalar scenarioPRJP1.node[61].networkLayer.arp 	completedARPResolution:count 	103
attr title  "ARP completed resolutions, count"
scalar scenarioPRJP1.node[61].networkLayer.arp 	initiatedARPResolution:count 	17
attr title  "ARP initiated resolutions, count"
scalar scenarioPRJP1.node[61].networkLayer.arp 	sentReply:count 	9
attr title  "ARP replies sent, count"
scalar scenarioPRJP1.node[61].networkLayer.arp 	sentReq:count 	22
attr title  "ARP request sent, count"
scalar scenarioPRJP1.node[61].mobility 	startTime 	7.3
scalar scenarioPRJP1.node[61].mobility 	totalTime 	152.6
scalar scenarioPRJP1.node[61].mobility 	stopTime 	160
scalar scenarioPRJP1.node[61].mobility 	minSpeed 	2.475801818536e-13
scalar scenarioPRJP1.node[61].mobility 	maxSpeed 	18.045610132708
scalar scenarioPRJP1.node[61].mobility 	totalDistance 	1483.4019873917
scalar scenarioPRJP1.node[61].mobility 	totalCO2Emission 	445.59145534549
scalar scenarioPRJP1.node[61].wlan.mgmt 	dataQueueLen:max 	0
attr interpolationmode  sample-hold
attr title  "data queue length, max"
scalar scenarioPRJP1.node[61].wlan.mgmt 	dataQueueLen:timeavg 	0
attr interpolationmode  sample-hold
attr title  "data queue length, timeavg"
scalar scenarioPRJP1.node[61].wlan.mgmt 	dropPkByQueue:count 	0
attr interpolationmode  none
attr source  dropPkByQueue
attr title  "packets dropped by queue, count"
scalar scenarioPRJP1.node[61].wlan.mgmt 	dropPkByQueue:sum(packetBytes) 	0
attr interpolationmode  none
attr source  dropPkByQueue
attr title  "packets dropped by queue, sum(packetBytes)"
scalar scenarioPRJP1.node[61].wlan.mac 	"number of received packets" 	385
scalar scenarioPRJP1.node[61].wlan.mac 	"number of collisions" 	756
scalar scenarioPRJP1.node[61].wlan.mac 	"number of internal collisions" 	0
scalar scenarioPRJP1.node[61].wlan.mac 	"number of retry for AC 0" 	544
scalar scenarioPRJP1.node[61].wlan.mac 	"number of retry for AC 1" 	6
scalar scenarioPRJP1.node[61].wlan.mac 	"number of retry for AC 2" 	0
scalar scenarioPRJP1.node[61].wlan.mac 	"number of retry for AC 3" 	0
scalar scenarioPRJP1.node[61].wlan.mac 	"sent and received bits" 	3165504
scalar scenarioPRJP1.node[61].wlan.mac 	"sent packet within AC 0" 	75
scalar scenarioPRJP1.node[61].wlan.mac 	"sent packet within AC 1" 	2
scalar scenarioPRJP1.node[61].wlan.mac 	"sent packet within AC 2" 	0
scalar scenarioPRJP1.node[61].wlan.mac 	"sent packet within AC 3" 	0
scalar scenarioPRJP1.node[61].wlan.mac 	"sent in TXOP " 	0
scalar scenarioPRJP1.node[61].wlan.mac 	"sentWithoutRetry AC 0" 	63
scalar scenarioPRJP1.node[61].wlan.mac 	"sentWithoutRetry AC 1" 	2
scalar scenarioPRJP1.node[61].wlan.mac 	"sentWithoutRetry AC 2" 	0
scalar scenarioPRJP1.node[61].wlan.mac 	"sentWithoutRetry AC 3" 	0
scalar scenarioPRJP1.node[61].wlan.mac 	"numGivenUp AC 0" 	85
scalar scenarioPRJP1.node[61].wlan.mac 	"numGivenUp AC 1" 	1
scalar scenarioPRJP1.node[61].wlan.mac 	"numGivenUp AC 2" 	0
scalar scenarioPRJP1.node[61].wlan.mac 	"numGivenUp AC 3" 	0
scalar scenarioPRJP1.node[61].wlan.mac 	"numDropped AC 0" 	0
scalar scenarioPRJP1.node[61].wlan.mac 	"numDropped AC 1" 	0
scalar scenarioPRJP1.node[61].wlan.mac 	"numDropped AC 2" 	0
scalar scenarioPRJP1.node[61].wlan.mac 	"numDropped AC 3" 	0
scalar scenarioPRJP1.node[61].wlan.mac 	rcvdPkFromLL:count 	6154
attr interpolationmode  none
attr source  packetReceivedFromLower
attr title  "packets received from lower layer, count"
scalar scenarioPRJP1.node[61].wlan.mac 	rcvdPkFromLL:sum(packetBytes) 	3866276
attr interpolationmode  none
attr source  packetReceivedFromLower
attr title  "packets received from lower layer, sum(packetBytes)"
scalar scenarioPRJP1.node[61].wlan.mac 	sentDownPk:count 	1454
attr interpolationmode  none
attr source  packetSentToLower
attr title  "packets sent to lower layer, count"
scalar scenarioPRJP1.node[61].wlan.mac 	sentDownPk:sum(packetBytes) 	749690
attr interpolationmode  none
attr source  packetSentToLower
attr title  "packets sent to lower layer, sum(packetBytes)"
scalar scenarioPRJP1.node[61].wlan.mac 	rcvdPkFromHL:count 	519
attr interpolationmode  none
attr source  packetReceivedFromUpper
attr title  "packets received from higher layer, count"
scalar scenarioPRJP1.node[61].wlan.mac 	rcvdPkFromHL:sum(packetBytes) 	442692
attr interpolationmode  none
attr source  packetReceivedFromUpper
attr title  "packets received from higher layer, sum(packetBytes)"
scalar scenarioPRJP1.node[61].wlan.mac 	passedUpPk:count 	2650
attr interpolationmode  none
attr source  packetSentToUpper
attr title  "packets passed to higher layer, count"
scalar scenarioPRJP1.node[61].wlan.mac 	passedUpPk:sum(packetBytes) 	2579716
attr interpolationmode  none
attr source  packetSentToUpper
attr title  "packets passed to higher layer, sum(packetBytes)"
statistic scenarioPRJP1.node[61].wlan.radio 	radioChannel:histogram
field count 1
field mean 3
field stddev -nan
field sum 3
field sqrsum 9
field min 3
field max 3
attr interpolationmode  sample-hold
attr source  radioChannelChanged
attr title  "Radio channel, histogram"
bin	-INF	0
bin	2	0
bin	3	1
bin	4	0
scalar scenarioPRJP1.node[61].wlan.radio 	transmissionState:count 	5816
attr interpolationmode  sample-hold
attr source  transmissionStateChanged
attr title  "Radio transmission state, count"
scalar scenarioPRJP1.node[61].wlan.radio 	receptionState:count 	15280
attr interpolationmode  sample-hold
attr source  receptionStateChanged
attr title  "Radio reception state, count"
scalar scenarioPRJP1.node[61].wlan.radio 	radioMode:count 	2910
attr interpolationmode  sample-hold
attr source  radioModeChanged
attr title  "Radio mode, count"
statistic scenarioPRJP1.node[61].wlan.radio 	symbolErrorRate:histogram
field count 0
field mean -nan
field stddev -nan
field sum 0
field sqrsum 0
field min -nan
field max -nan
attr source  symbolErrorRate
attr title  "Symbol error rate, histogram"
bin	-INF	0
bin	-0.5	0
bin	-0.46666666666667	0
bin	-0.43333333333333	0
bin	-0.4	0
bin	-0.36666666666667	0
bin	-0.33333333333333	0
bin	-0.3	0
bin	-0.26666666666667	0
bin	-0.23333333333333	0
bin	-0.2	0
bin	-0.16666666666667	0
bin	-0.13333333333333	0
bin	-0.1	0
bin	-0.066666666666667	0
bin	-0.033333333333333	0
bin	0	0
bin	0.033333333333333	0
bin	0.066666666666667	0
bin	0.1	0
bin	0.13333333333333	0
bin	0.16666666666667	0
bin	0.2	0
bin	0.23333333333333	0
bin	0.26666666666667	0
bin	0.3	0
bin	0.33333333333333	0
bin	0.36666666666667	0
bin	0.4	0
bin	0.43333333333333	0
bin	0.46666666666667	0
bin	0.5	0
statistic scenarioPRJP1.node[61].wlan.radio 	bitErrorRate:histogram
field count 0
field mean -nan
field stddev -nan
field sum 0
field sqrsum 0
field min -nan
field max -nan
attr source  bitErrorRate
attr title  "Bit error rate, histogram"
bin	-INF	0
bin	-0.5	0
bin	-0.46666666666667	0
bin	-0.43333333333333	0
bin	-0.4	0
bin	-0.36666666666667	0
bin	-0.33333333333333	0
bin	-0.3	0
bin	-0.26666666666667	0
bin	-0.23333333333333	0
bin	-0.2	0
bin	-0.16666666666667	0
bin	-0.13333333333333	0
bin	-0.1	0
bin	-0.066666666666667	0
bin	-0.033333333333333	0
bin	0	0
bin	0.033333333333333	0
bin	0.066666666666667	0
bin	0.1	0
bin	0.13333333333333	0
bin	0.16666666666667	0
bin	0.2	0
bin	0.23333333333333	0
bin	0.26666666666667	0
bin	0.3	0
bin	0.33333333333333	0
bin	0.36666666666667	0
bin	0.4	0
bin	0.43333333333333	0
bin	0.46666666666667	0
bin	0.5	0
statistic scenarioPRJP1.node[61].wlan.radio 	packetErrorRate:histogram
field count 6154
field mean 0.11453848929759
field stddev 0.30932828520456
field sum 704.86986313738
field sqrsum 669.47830760892
field min 0
field max 1
attr source  packetErrorRate
attr title  "Packet error rate, histogram"
bin	-INF	0
bin	-1	0
bin	0	5644
bin	1	510
bin	2	0
statistic scenarioPRJP1.node[61].wlan.radio 	minSNIR:histogram
field count 6154
field mean 1715.2785467169
field stddev 22725.571361415
field sum 10555824.176496
field sqrsum 3195832834805.9
field min 0.0017945190090576
field max 753239.69136791
attr source  minSNIR
attr title  "Min SNIR, histogram"
bin	-INF	0
bin	-21248.463629864	0
bin	-18415.290273941	0
bin	-15582.116918018	0
bin	-12748.943562094	0
bin	-9915.7702061707	0
bin	-7082.5968502473	0
bin	-4249.4234943238	0
bin	-1416.2501384004	5677
bin	1416.923217523	237
bin	4250.0965734465	78
bin	7083.2699293699	36
bin	9916.4432852933	19
bin	12749.616641217	25
bin	15582.78999714	5
bin	18415.963353064	11
bin	21249.136708987	6
bin	24082.310064911	4
bin	26915.483420834	5
bin	29748.656776757	4
bin	32581.830132681	16
bin	35415.003488604	0
bin	38248.176844528	1
bin	41081.350200451	2
bin	43914.523556375	0
bin	46747.696912298	0
bin	49580.870268221	2
bin	52414.043624145	2
bin	55247.216980068	0
bin	58080.390335992	2
bin	60913.563691915	1
bin	63746.737047839	21
scalar scenarioPRJP1.node[61].lo0.lo 	droppedPkBitError:count 	0
attr interpolationmode  none
attr source  dropPkBitError
attr title  "packets dropped/bit error, count"
scalar scenarioPRJP1.node[61].lo0.lo 	droppedPkBitError:sum(packetBytes) 	0
attr interpolationmode  none
attr source  dropPkBitError
attr title  "packets dropped/bit error, sum(packetBytes)"
scalar scenarioPRJP1.node[61].lo0.lo 	rcvdPkFromHL:count 	1
attr interpolationmode  none
attr source  packetReceivedFromUpper
attr title  "packets received from higher layer, count"
scalar scenarioPRJP1.node[61].lo0.lo 	rcvdPkFromHL:sum(packetBytes) 	56
attr interpolationmode  none
attr source  packetReceivedFromUpper
attr title  "packets received from higher layer, sum(packetBytes)"
scalar scenarioPRJP1.node[61].lo0.lo 	passedUpPk:count 	1
attr interpolationmode  none
attr source  packetSentToUpper
attr title  "packets passed to higher layer, count"
scalar scenarioPRJP1.node[61].lo0.lo 	passedUpPk:sum(packetBytes) 	56
attr interpolationmode  none
attr source  packetSentToUpper
attr title  "packets passed to higher layer, sum(packetBytes)"
scalar scenarioPRJP1.node[87].app 	"Total sent" 	376
scalar scenarioPRJP1.node[87].app 	"Total received" 	17
scalar scenarioPRJP1.node[87].app 	"Total deleted" 	0
scalar scenarioPRJP1.node[87].app 	dropPk:count 	0
attr interpolationmode  none
attr source  dropPk
attr title  "packets dropped, count"
scalar scenarioPRJP1.node[87].app 	dropPk:sum(packetBytes) 	0
attr interpolationmode  none
attr source  dropPk
attr title  "packets dropped, sum(packetBytes)"
scalar scenarioPRJP1.node[87].app 	outOfOrderPk:count 	0
attr interpolationmode  none
attr source  outOfOrderPk
attr title  "packets received out of order, count"
scalar scenarioPRJP1.node[87].app 	outOfOrderPk:sum(packetBytes) 	0
attr interpolationmode  none
attr source  outOfOrderPk
attr title  "packets received out of order, sum(packetBytes)"
scalar scenarioPRJP1.node[87].app 	rcvdPk:count 	17
attr interpolationmode  none
attr source  rcvdPk
attr title  "packets received, count"
scalar scenarioPRJP1.node[87].app 	rcvdPk:sum(packetBytes) 	8704
attr interpolationmode  none
attr source  rcvdPk
attr title  "packets received, sum(packetBytes)"
statistic scenarioPRJP1.node[87].app 	endToEndDelay:histogram
field count 17
field mean 0.026046198245529
field stddev 0.06089755966676
field sum 0.442785370174
field sqrsum 0.070869079905637
field min 0.000945025215
field max 0.254889675415
attr interpolationmode  none
attr source  messageAge(rcvdPk)
attr title  "delay, histogram"
attr unit  s
bin	-INF	0
bin	-0.126027299885	0
bin	-0.10909765653833	0
bin	-0.092168013191667	0
bin	-0.075238369845	0
bin	-0.058308726498333	0
bin	-0.041379083151667	0
bin	-0.024449439805	0
bin	-0.0075197964583333	10
bin	0.0094098468883334	5
bin	0.026339490235	0
bin	0.043269133581667	0
bin	0.060198776928333	1
bin	0.077128420275	0
bin	0.094058063621667	0
bin	0.11098770696833	0
bin	0.127917350315	0
bin	0.14484699366167	0
bin	0.16177663700833	0
bin	0.178706280355	0
bin	0.19563592370167	0
bin	0.21256556704833	0
bin	0.229495210395	0
bin	0.24642485374167	1
bin	0.26335449708833	0
bin	0.280284140435	0
bin	0.29721378378167	0
bin	0.31414342712833	0
bin	0.331073070475	0
bin	0.34800271382167	0
bin	0.36493235716833	0
bin	0.381862000515	0
scalar scenarioPRJP1.node[87].app 	sentPk:count 	376
attr interpolationmode  none
attr source  sentPk
attr title  "packets sent, count"
scalar scenarioPRJP1.node[87].app 	sentPk:sum(packetBytes) 	192512
attr interpolationmode  none
attr source  sentPk
attr title  "packets sent, sum(packetBytes)"
scalar scenarioPRJP1.node[87].udp 	droppedPkBadChecksum:count 	0
attr interpolationmode  none
attr title  "packets dropped (checksum error), count"
scalar scenarioPRJP1.node[87].udp 	droppedPkWrongPort:count 	0
attr interpolationmode  none
attr title  "packets dropped (wrong port), count"
scalar scenarioPRJP1.node[87].udp 	passedUpPk:count 	17
attr interpolationmode  none
attr title  "packets passed up, count"
scalar scenarioPRJP1.node[87].udp 	rcvdPk:count 	17
attr interpolationmode  none
attr source  rcvdPk
attr title  "packets received, count"
scalar scenarioPRJP1.node[87].udp 	rcvdPk:sum(packetBytes) 	8840
attr interpolationmode  none
attr source  rcvdPk
attr title  "packets received, sum(packetBytes)"
scalar scenarioPRJP1.node[87].udp 	sentPk:count 	376
attr interpolationmode  none
attr source  sentPk
attr title  "packets sent, count"
scalar scenarioPRJP1.node[87].udp 	sentPk:sum(packetBytes) 	195520
attr interpolationmode  none
attr source  sentPk
attr title  "packets sent, sum(packetBytes)"
scalar scenarioPRJP1.node[87].networkLayer.arp 	failedARPResolution:count 	2
attr title  "ARP failed resolutions, count"
scalar scenarioPRJP1.node[87].networkLayer.arp 	completedARPResolution:count 	53
attr title  "ARP completed resolutions, count"
scalar scenarioPRJP1.node[87].networkLayer.arp 	initiatedARPResolution:count 	14
attr title  "ARP initiated resolutions, count"
scalar scenarioPRJP1.node[87].networkLayer.arp 	sentReply:count 	4
attr title  "ARP replies sent, count"
scalar scenarioPRJP1.node[87].networkLayer.arp 	sentReq:count 	20
attr title  "ARP request sent, count"
scalar scenarioPRJP1.node[87].mobility 	startTime 	9.7
scalar scenarioPRJP1.node[87].mobility 	totalTime 	151.5
scalar scenarioPRJP1.node[87].mobility 	stopTime 	161.3
scalar scenarioPRJP1.node[87].mobility 	minSpeed 	2.4778980253844e-13
scalar scenarioPRJP1.node[87].mobility 	maxSpeed 	16.891718259082
scalar scenarioPRJP1.node[87].mobility 	totalDistance 	1484.8649810207
scalar scenarioPRJP1.node[87].mobility 	totalCO2Emission 	427.87518070639
scalar scenarioPRJP1.node[87].wlan.mgmt 	dataQueueLen:max 	0
attr interpolationmode  sample-hold
attr title  "data queue length, max"
scalar scenarioPRJP1.node[87].wlan.mgmt 	dataQueueLen:timeavg 	0
attr interpolationmode  sample-hold
attr title  "data queue length, timeavg"
scalar scenarioPRJP1.node[87].wlan.mgmt 	dropPkByQueue:count 	0
attr interpolationmode  none
attr source  dropPkByQueue
attr title  "packets dropped by queue, count"
scalar scenarioPRJP1.node[87].wlan.mgmt 	dropPkByQueue:sum(packetBytes) 	0
attr interpolationmode  none
attr source  dropPkByQueue
attr title  "packets dropped by queue, sum(packetBytes)"
scalar scenarioPRJP1.node[87].wlan.mac 	"number of received packets" 	131
scalar scenarioPRJP1.node[87].wlan.mac 	"number of collisions" 	751
scalar scenarioPRJP1.node[87].wlan.mac 	"number of internal collisions" 	0
scalar scenarioPRJP1.node[87].wlan.mac 	"number of retry for AC 0" 	192
scalar scenarioPRJP1.node[87].wlan.mac 	"number of retry for AC 1" 	6
scalar scenarioPRJP1.node[87].wlan.mac 	"number of retry for AC 2" 	0
scalar scenarioPRJP1.node[87].wlan.mac 	"number of retry for AC 3" 	0
scalar scenarioPRJP1.node[87].wlan.mac 	"sent and received bits" 	2888480
scalar scenarioPRJP1.node[87].wlan.mac 	"sent packet within AC 0" 	78
scalar scenarioPRJP1.node[87].wlan.mac 	"sent packet within AC 1" 	3
scalar scenarioPRJP1.node[87].wlan.mac 	"sent packet within AC 2" 	0
scalar scenarioPRJP1.node[87].wlan.mac 	"sent packet within AC 3" 	0
scalar scenarioPRJP1.node[87].wlan.mac 	"sent in TXOP " 	0
scalar scenarioPRJP1.node[87].wlan.mac 	"sentWithoutRetry AC 0" 	71
scalar scenarioPRJP1.node[87].wlan.mac 	"sentWithoutRetry AC 1" 	3
scalar scenarioPRJP1.node[87].wlan.mac 	"sentWithoutRetry AC 2" 	0
scalar scenarioPRJP1.node[87].wlan.mac 	"sentWithoutRetry AC 3" 	0
scalar scenarioPRJP1.node[87].wlan.mac 	"numGivenUp AC 0" 	30
scalar scenarioPRJP1.node[87].wlan.mac 	"numGivenUp AC 1" 	1
scalar scenarioPRJP1.node[87].wlan.mac 	"numGivenUp AC 2" 	0
scalar scenarioPRJP1.node[87].wlan.mac 	"numGivenUp AC 3" 	0
scalar scenarioPRJP1.node[87].wlan.mac 	"numDropped AC 0" 	0
scalar scenarioPRJP1.node[87].wlan.mac 	"numDropped AC 1" 	0
scalar scenarioPRJP1.node[87].wlan.mac 	"numDropped AC 2" 	0
scalar scenarioPRJP1.node[87].wlan.mac 	"numDropped AC 3" 	0
scalar scenarioPRJP1.node[87].wlan.mac 	rcvdPkFromLL:count 	5633
attr interpolationmode  none
attr source  packetReceivedFromLower
attr title  "packets received from lower layer, count"
scalar scenarioPRJP1.node[87].wlan.mac 	rcvdPkFromLL:sum(packetBytes) 	3431238
attr interpolationmode  none
attr source  packetReceivedFromLower
attr title  "packets received from lower layer, sum(packetBytes)"
scalar scenarioPRJP1.node[87].wlan.mac 	sentDownPk:count 	758
attr interpolationmode  none
attr source  packetSentToLower
attr title  "packets sent to lower layer, count"
scalar scenarioPRJP1.node[87].wlan.mac 	sentDownPk:sum(packetBytes) 	480658
attr interpolationmode  none
attr source  packetSentToLower
attr title  "packets sent to lower layer, sum(packetBytes)"
scalar scenarioPRJP1.node[87].wlan.mac 	rcvdPkFromHL:count 	429
attr interpolationmode  none
attr source  packetReceivedFromUpper
attr title  "packets received from higher layer, count"
scalar scenarioPRJP1.node[87].wlan.mac 	rcvdPkFromHL:sum(packetBytes) 	376896
attr interpolationmode  none
attr source  packetReceivedFromUpper
attr title  "packets received from higher layer, sum(packetBytes)"
scalar scenarioPRJP1.node[87].wlan.mac 	passedUpPk:count 	2253
attr interpolationmode  none
attr source  packetSentToUpper
attr title  "packets passed to higher layer, count"
scalar scenarioPRJP1.node[87].wlan.mac 	passedUpPk:sum(packetBytes) 	2250620
attr interpolationmode  none
attr source  packetSentToUpper
attr title  "packets passed to higher layer, sum(packetBytes)"
statistic scenarioPRJP1.node[87].wlan.radio 	radioChannel:histogram
field count 1
field mean 3
field stddev -nan
field sum 3
field sqrsum 9
field min 3
field max 3
attr interpolationmode  sample-hold
attr source  radioChannelChanged
attr title  "Radio channel, histogram"
bin	-INF	0
bin	2	0
bin	3	1
bin	4	0
scalar scenarioPRJP1.node[87].wlan.radio 	transmissionState:count 	3032
attr interpolationmode  sample-hold
attr source  transmissionStateChanged
attr title  "Radio transmission state, count"
scalar scenarioPRJP1.node[87].wlan.radio 	receptionState:count 	12825
attr interpolationmode  sample-hold
attr source  receptionStateChanged
attr title  "Radio reception state, count"
scalar scenarioPRJP1.node[87].wlan.radio 	radioMode:count 	1518
attr interpolationmode  sample-hold
attr source  radioModeChanged
attr title  "Radio mode, count"
statistic scenarioPRJP1.node[87].wlan.radio 	symbolErrorRate:histogram
field count 0
field mean -nan
field stddev -nan
field sum 0
field sqrsum 0
field min -nan
field max -nan
attr source  symbolErrorRate
attr title  "Symbol error rate, histogram"
bin	-INF	0
bin	-0.5	0
bin	-0.46666666666667	0
bin	-0.43333333333333	0
bin	-0.4	0
bin	-0.36666666666667	0
bin	-0.33333333333333	0
bin	-0.3	0
bin	-0.26666666666667	0
bin	-0.23333333333333	0
bin	-0.2	0
bin	-0.16666666666667	0
bin	-0.13333333333333	0
bin	-0.1	0
bin	-0.066666666666667	0
bin	-0.033333333333333	0
bin	0	0
bin	0.033333333333333	0
bin	0.066666666666667	0
bin	0.1	0
bin	0.13333333333333	0
bin	0.16666666666667	0
bin	0.2	0
bin	0.23333333333333	0
bin	0.26666666666667	0
bin	0.3	0
bin	0.33333333333333	0
bin	0.36666666666667	0
bin	0.4	0
bin	0.43333333333333	0
bin	0.46666666666667	0
bin	0.5	0
statistic scenarioPRJP1.node[87].wlan.radio 	bitErrorRate:histogram
field count 0
field mean -nan
field stddev -nan
field sum 0
field sqrsum 0
field min -nan
field max -nan
attr source  bitErrorRate
attr title  "Bit error rate, histogram"
bin	-INF	0
bin	-0.5	0
bin	-0.46666666666667	0
bin	-0.43333333333333	0
bin	-0.4	0
bin	-0.36666666666667	0
bin	-0.33333333333333	0
bin	-0.3	0
bin	-0.26666666666667	0
bin	-0.23333333333333	0
bin	-0.2	0
bin	-0.16666666666667	0
bin	-0.13333333333333	0
bin	-0.1	0
bin	-0.066666666666667	0
bin	-0.033333333333333	0
bin	0	0
bin	0.033333333333333	0
bin	0.066666666666667	0
bin	0.1	0
bin	0.13333333333333	0
bin	0.16666666666667	0
bin	0.2	0
bin	0.23333333333333	0
bin	0.26666666666667	0
bin	0.3	0
bin	0.33333333333333	0
bin	0.36666666666667	0
bin	0.4	0
bin	0.43333333333333	0
bin	0.46666666666667	0
bin	0.5	0
statistic scenarioPRJP1.node[87].wlan.radio 	packetErrorRate:histogram
field count 5633
field mean 0.12143627433306
field stddev 0.31887541163114
field sum 684.05053331811
field sqrsum 655.73891472266
field min 0
field max 1
attr source  packetErrorRate
attr title  "Packet error rate, histogram"
bin	-INF	0
bin	-0.002092544673009	0
bin	-0.0018135387166078	0
bin	-0.0015345327602066	0
bin	-0.0012555268038054	0
bin	-0.00097652084740418	0
bin	-0.00069751489100299	0
bin	-0.00041850893460179	0
bin	-0.0001395029782006	4572
bin	0.0001395029782006	41
bin	0.00041850893460179	27
bin	0.00069751489100299	17
bin	0.00097652084740418	8
bin	0.0012555268038054	11
bin	0.0015345327602066	3
bin	0.0018135387166078	11
bin	0.002092544673009	1
bin	0.0023715506294101	6
bin	0.0026505565858113	2
bin	0.0029295625422125	2
bin	0.0032085684986137	3
bin	0.0034875744550149	4
bin	0.0037665804114161	2
bin	0.0040455863678173	2
bin	0.0043245923242185	4
bin	0.0046035982806197	2
bin	0.0048826042370209	1
bin	0.0051616101934221	5
bin	0.0054406161498233	4
bin	0.0057196221062245	1
bin	0.0059986280626257	5
bin	0.0062776340190269	899
statistic scenarioPRJP1.node[87].wlan.radio 	minSNIR:histogram
field count 5633
field mean 3937.2551277691
field stddev 23029.508784023
field sum 22178558.134723
field sqrsum 3074300445604
field min 0.0068353115595996
field max 753239.67175956
attr source  minSNIR
attr title  "Min SNIR, histogram"
bin	-INF	0
bin	-22479.569095484	0
bin	-19481.897771806	0
bin	-16484.226448128	0
bin	-13486.55512445	0
bin	-10488.883800771	0
bin	-7491.2124770932	0
bin	-4493.5411534149	0
bin	-1495.8698297366	4613
bin	1501.8014939416	457
bin	4499.4728176199	161
bin	7497.1441412982	96
bin	10494.815464976	56
bin	13492.486788655	43
bin	16490.158112333	37
bin	19487.829436011	15
bin	22485.500759689	14
bin	25483.172083368	15
bin	28480.843407046	8
bin	31478.514730724	6
bin	34476.186054403	3
bin	37473.857378081	5
bin	40471.528701759	2
bin	43469.200025437	2
bin	46466.871349116	2
bin	49464.542672794	1
bin	52462.213996472	0
bin	55459.88532015	2
bin	58457.556643829	0
bin	61455.227967507	4
bin	64452.899291185	0
bin	67450.570614863	91
scalar scenarioPRJP1.node[87].lo0.lo 	droppedPkBitError:count 	0
attr interpolationmode  none
attr source  dropPkBitError
attr title  "packets dropped/bit error, count"
scalar scenarioPRJP1.node[87].lo0.lo 	droppedPkBitError:sum(packetBytes) 	0
attr interpolationmode  none
attr source  dropPkBitError
attr title  "packets dropped/bit error, sum(packetBytes)"
scalar scenarioPRJP1.node[87].lo0.lo 	rcvdPkFromHL:count 	0
attr interpolationmode  none
attr source  packetReceivedFromUpper
attr title  "packets received from higher layer, count"
scalar scenarioPRJP1.node[87].lo0.lo 	rcvdPkFromHL:sum(packetBytes) 	0
attr interpolationmode  none
attr source  packetReceivedFromUpper
attr title  "packets received from higher layer, sum(packetBytes)"
scalar scenarioPRJP1.node[87].lo0.lo 	passedUpPk:count 	0
attr interpolationmode  none
attr source  packetSentToUpper
attr title  "packets passed to higher layer, count"
scalar scenarioPRJP1.node[87].lo0.lo 	passedUpPk:sum(packetBytes) 	0
attr interpolationmode  none
attr source  packetSentToUpper
attr title  "packets passed to higher layer, sum(packetBytes)"
scalar scenarioPRJP1.node[52].app 	"Total sent" 	376
scalar scenarioPRJP1.node[52].app 	"Total received" 	20
scalar scenarioPRJP1.node[52].app 	"Total deleted" 	0
scalar scenarioPRJP1.node[52].app 	dropPk:count 	0
attr interpolationmode  none
attr source  dropPk
attr title  "packets dropped, count"
scalar scenarioPRJP1.node[52].app 	dropPk:sum(packetBytes) 	0
attr interpolationmode  none
attr source  dropPk
attr title  "packets dropped, sum(packetBytes)"
scalar scenarioPRJP1.node[52].app 	outOfOrderPk:count 	0
attr interpolationmode  none
attr source  outOfOrderPk
attr title  "packets received out of order, count"
scalar scenarioPRJP1.node[52].app 	outOfOrderPk:sum(packetBytes) 	0
attr interpolationmode  none
attr source  outOfOrderPk
attr title  "packets received out of order, sum(packetBytes)"
scalar scenarioPRJP1.node[52].app 	rcvdPk:count 	20
attr interpolationmode  none
attr source  rcvdPk
attr title  "packets received, count"
scalar scenarioPRJP1.node[52].app 	rcvdPk:sum(packetBytes) 	10240
attr interpolationmode  none
attr source  rcvdPk
attr title  "packets received, sum(packetBytes)"
statistic scenarioPRJP1.node[52].app 	endToEndDelay:histogram
field count 20
field mean 0.0554510781487
field stddev 0.2242442247825
field sum 1.109021562974
field sqrsum 1.0169204159749
field min 0.000945011007
field max 1.007736895719
attr interpolationmode  none
attr source  messageAge(rcvdPk)
attr title  "delay, histogram"
attr unit  s
bin	-INF	0
bin	-0.502450931349	0
bin	-0.4353314723682	0
bin	-0.3682120133874	0
bin	-0.3010925544066	0
bin	-0.2339730954258	0
bin	-0.166853636445	0
bin	-0.0997341774642	0
bin	-0.0326147184834	19
bin	0.0345047404974	0
bin	0.1016241994782	0
bin	0.168743658459	0
bin	0.2358631174398	0
bin	0.3029825764206	0
bin	0.3701020354014	0
bin	0.4372214943822	0
bin	0.504340953363	0
bin	0.5714604123438	0
bin	0.6385798713246	0
bin	0.7056993303054	0
bin	0.7728187892862	0
bin	0.839938248267	0
bin	0.9070577072478	0
bin	0.9741771662286	1
bin	1.0412966252094	0
bin	1.1084160841902	0
bin	1.175535543171	0
bin	1.2426550021518	0
bin	1.3097744611326	0
bin	1.3768939201134	0
bin	1.4440133790942	0
bin	1.511132838075	0
scalar scenarioPRJP1.node[52].app 	sentPk:count 	376
attr interpolationmode  none
attr source  sentPk
attr title  "packets sent, count"
scalar scenarioPRJP1.node[52].app 	sentPk:sum(packetBytes) 	192512
attr interpolationmode  none
attr source  sentPk
attr title  "packets sent, sum(packetBytes)"
scalar scenarioPRJP1.node[52].udp 	droppedPkBadChecksum:count 	0
attr interpolationmode  none
attr title  "packets dropped (checksum error), count"
scalar scenarioPRJP1.node[52].udp 	droppedPkWrongPort:count 	0
attr interpolationmode  none
attr title  "packets dropped (wrong port), count"
scalar scenarioPRJP1.node[52].udp 	passedUpPk:count 	20
attr interpolationmode  none
attr title  "packets passed up, count"
scalar scenarioPRJP1.node[52].udp 	rcvdPk:count 	20
attr interpolationmode  none
attr source  rcvdPk
attr title  "packets received, count"
scalar scenarioPRJP1.node[52].udp 	rcvdPk:sum(packetBytes) 	10400
attr interpolationmode  none
attr source  rcvdPk
attr title  "packets received, sum(packetBytes)"
scalar scenarioPRJP1.node[52].udp 	sentPk:count 	376
attr interpolationmode  none
attr source  sentPk
attr title  "packets sent, count"
scalar scenarioPRJP1.node[52].udp 	sentPk:sum(packetBytes) 	195520
attr interpolationmode  none
attr source  sentPk
attr title  "packets sent, sum(packetBytes)"
scalar scenarioPRJP1.node[52].networkLayer.arp 	failedARPResolution:count 	2
attr title  "ARP failed resolutions, count"
scalar scenarioPRJP1.node[52].networkLayer.arp 	completedARPResolution:count 	71
attr title  "ARP completed resolutions, count"
scalar scenarioPRJP1.node[52].networkLayer.arp 	initiatedARPResolution:count 	13
attr title  "ARP initiated resolutions, count"
scalar scenarioPRJP1.node[52].networkLayer.arp 	sentReply:count 	6
attr title  "ARP replies sent, count"
scalar scenarioPRJP1.node[52].networkLayer.arp 	sentReq:count 	19
attr title  "ARP request sent, count"
scalar scenarioPRJP1.node[52].mobility 	startTime 	4.9
scalar scenarioPRJP1.node[52].mobility 	totalTime 	156.4
scalar scenarioPRJP1.node[52].mobility 	stopTime 	161.4
scalar scenarioPRJP1.node[52].mobility 	minSpeed 	2.4756972571326e-13
scalar scenarioPRJP1.node[52].mobility 	maxSpeed 	17.369814234045
scalar scenarioPRJP1.node[52].mobility 	totalDistance 	1449.5944128203
scalar scenarioPRJP1.node[52].mobility 	totalCO2Emission 	408.23349296273
scalar scenarioPRJP1.node[52].wlan.mgmt 	dataQueueLen:max 	0
attr interpolationmode  sample-hold
attr title  "data queue length, max"
scalar scenarioPRJP1.node[52].wlan.mgmt 	dataQueueLen:timeavg 	0
attr interpolationmode  sample-hold
attr title  "data queue length, timeavg"
scalar scenarioPRJP1.node[52].wlan.mgmt 	dropPkByQueue:count 	0
attr interpolationmode  none
attr source  dropPkByQueue
attr title  "packets dropped by queue, count"
scalar scenarioPRJP1.node[52].wlan.mgmt 	dropPkByQueue:sum(packetBytes) 	0
attr interpolationmode  none
attr source  dropPkByQueue
attr title  "packets dropped by queue, sum(packetBytes)"
scalar scenarioPRJP1.node[52].wlan.mac 	"number of received packets" 	147
scalar scenarioPRJP1.node[52].wlan.mac 	"number of collisions" 	653
scalar scenarioPRJP1.node[52].wlan.mac 	"number of internal collisions" 	0
scalar scenarioPRJP1.node[52].wlan.mac 	"number of retry for AC 0" 	202
scalar scenarioPRJP1.node[52].wlan.mac 	"number of retry for AC 1" 	0
scalar scenarioPRJP1.node[52].wlan.mac 	"number of retry for AC 2" 	0
scalar scenarioPRJP1.node[52].wlan.mac 	"number of retry for AC 3" 	0
scalar scenarioPRJP1.node[52].wlan.mac 	"sent and received bits" 	3342688
scalar scenarioPRJP1.node[52].wlan.mac 	"sent packet within AC 0" 	111
scalar scenarioPRJP1.node[52].wlan.mac 	"sent packet within AC 1" 	5
scalar scenarioPRJP1.node[52].wlan.mac 	"sent packet within AC 2" 	0
scalar scenarioPRJP1.node[52].wlan.mac 	"sent packet within AC 3" 	0
scalar scenarioPRJP1.node[52].wlan.mac 	"sent in TXOP " 	0
scalar scenarioPRJP1.node[52].wlan.mac 	"sentWithoutRetry AC 0" 	106
scalar scenarioPRJP1.node[52].wlan.mac 	"sentWithoutRetry AC 1" 	5
scalar scenarioPRJP1.node[52].wlan.mac 	"sentWithoutRetry AC 2" 	0
scalar scenarioPRJP1.node[52].wlan.mac 	"sentWithoutRetry AC 3" 	0
scalar scenarioPRJP1.node[52].wlan.mac 	"numGivenUp AC 0" 	30
scalar scenarioPRJP1.node[52].wlan.mac 	"numGivenUp AC 1" 	0
scalar scenarioPRJP1.node[52].wlan.mac 	"numGivenUp AC 2" 	0
scalar scenarioPRJP1.node[52].wlan.mac 	"numGivenUp AC 3" 	0
scalar scenarioPRJP1.node[52].wlan.mac 	"numDropped AC 0" 	0
scalar scenarioPRJP1.node[52].wlan.mac 	"numDropped AC 1" 	0
scalar scenarioPRJP1.node[52].wlan.mac 	"numDropped AC 2" 	0
scalar scenarioPRJP1.node[52].wlan.mac 	"numDropped AC 3" 	0
scalar scenarioPRJP1.node[52].wlan.mac 	rcvdPkFromLL:count 	6757
attr interpolationmode  none
attr source  packetReceivedFromLower
attr title  "packets received from lower layer, count"
scalar scenarioPRJP1.node[52].wlan.mac 	rcvdPkFromLL:sum(packetBytes) 	4221312
attr interpolationmode  none
attr source  packetReceivedFromLower
attr title  "packets received from lower layer, sum(packetBytes)"
scalar scenarioPRJP1.node[52].wlan.mac 	sentDownPk:count 	846
attr interpolationmode  none
attr source  packetSentToLower
attr title  "packets sent to lower layer, count"
scalar scenarioPRJP1.node[52].wlan.mac 	sentDownPk:sum(packetBytes) 	539190
attr interpolationmode  none
attr source  packetSentToLower
attr title  "packets sent to lower layer, sum(packetBytes)"
scalar scenarioPRJP1.node[52].wlan.mac 	rcvdPkFromHL:count 	497
attr interpolationmode  none
attr source  packetReceivedFromUpper
attr title  "packets received from higher layer, count"
scalar scenarioPRJP1.node[52].wlan.mac 	rcvdPkFromHL:sum(packetBytes) 	433068
attr interpolationmode  none
attr source  packetReceivedFromUpper
attr title  "packets received from higher layer, sum(packetBytes)"
scalar scenarioPRJP1.node[52].wlan.mac 	passedUpPk:count 	2845
attr interpolationmode  none
attr source  packetSentToUpper
attr title  "packets passed to higher layer, count"
scalar scenarioPRJP1.node[52].wlan.mac 	passedUpPk:sum(packetBytes) 	2795112
attr interpolationmode  none
attr source  packetSentToUpper
attr title  "packets passed to higher layer, sum(packetBytes)"
statistic scenarioPRJP1.node[52].wlan.radio 	radioChannel:histogram
field count 1
field mean 3
field stddev -nan
field sum 3
field sqrsum 9
field min 3
field max 3
attr interpolationmode  sample-hold
attr source  radioChannelChanged
attr title  "Radio channel, histogram"
bin	-INF	0
bin	2	0
bin	3	1
bin	4	0
scalar scenarioPRJP1.node[52].wlan.radio 	transmissionState:count 	3384
attr interpolationmode  sample-hold
attr source  transmissionStateChanged
attr title  "Radio transmission state, count"
scalar scenarioPRJP1.node[52].wlan.radio 	receptionState:count 	15298
attr interpolationmode  sample-hold
attr source  receptionStateChanged
attr title  "Radio reception state, count"
scalar scenarioPRJP1.node[52].wlan.radio 	radioMode:count 	1694
attr interpolationmode  sample-hold
attr source  radioModeChanged
attr title  "Radio mode, count"
statistic scenarioPRJP1.node[52].wlan.radio 	symbolErrorRate:histogram
field count 0
field mean -nan
field stddev -nan
field sum 0
field sqrsum 0
field min -nan
field max -nan
attr source  symbolErrorRate
attr title  "Symbol error rate, histogram"
bin	-INF	0
bin	-0.5	0
bin	-0.46666666666667	0
bin	-0.43333333333333	0
bin	-0.4	0
bin	-0.36666666666667	0
bin	-0.33333333333333	0
bin	-0.3	0
bin	-0.26666666666667	0
bin	-0.23333333333333	0
bin	-0.2	0
bin	-0.16666666666667	0
bin	-0.13333333333333	0
bin	-0.1	0
bin	-0.066666666666667	0
bin	-0.033333333333333	0
bin	0	0
bin	0.033333333333333	0
bin	0.066666666666667	0
bin	0.1	0
bin	0.13333333333333	0
bin	0.16666666666667	0
bin	0.2	0
bin	0.23333333333333	0
bin	0.26666666666667	0
bin	0.3	0
bin	0.33333333333333	0
bin	0.36666666666667	0
bin	0.4	0
bin	0.43333333333333	0
bin	0.46666666666667	0
bin	0.5	0
statistic scenarioPRJP1.node[52].wlan.radio 	bitErrorRate:histogram
field count 0
field mean -nan
field stddev -nan
field sum 0
field sqrsum 0
field min -nan
field max -nan
attr source  bitErrorRate
attr title  "Bit error rate, histogram"
bin	-INF	0
bin	-0.5	0
bin	-0.46666666666667	0
bin	-0.43333333333333	0
bin	-0.4	0
bin	-0.36666666666667	0
bin	-0.33333333333333	0
bin	-0.3	0
bin	-0.26666666666667	0
bin	-0.23333333333333	0
bin	-0.2	0
bin	-0.16666666666667	0
bin	-0.13333333333333	0
bin	-0.1	0
bin	-0.066666666666667	0
bin	-0.033333333333333	0
bin	0	0
bin	0.033333333333333	0
bin	0.066666666666667	0
bin	0.1	0
bin	0.13333333333333	0
bin	0.16666666666667	0
bin	0.2	0
bin	0.23333333333333	0
bin	0.26666666666667	0
bin	0.3	0
bin	0.33333333333333	0
bin	0.36666666666667	0
bin	0.4	0
bin	0.43333333333333	0
bin	0.46666666666667	0
bin	0.5	0
statistic scenarioPRJP1.node[52].wlan.radio 	packetErrorRate:histogram
field count 6757
field mean 0.087888776045397
field stddev 0.27474287514957
field sum 593.86445973875
field sqrsum 562.16154264477
field min 0
field max 1
attr source  packetErrorRate
attr title  "Packet error rate, histogram"
bin	-INF	0
bin	-3.612580457002e-09	0
bin	-3.130903062735e-09	0
bin	-2.6492256684681e-09	0
bin	-2.1675482742012e-09	0
bin	-1.6858708799343e-09	0
bin	-1.2041934856673e-09	0
bin	-7.2251609140039e-10	0
bin	-2.4083869713346e-10	5381
bin	2.4083869713346e-10	36
bin	7.2251609140039e-10	8
bin	1.2041934856673e-09	8
bin	1.6858708799343e-09	5
bin	2.1675482742012e-09	1
bin	2.6492256684681e-09	7
bin	3.130903062735e-09	4
bin	3.612580457002e-09	2
bin	4.0942578512689e-09	4
bin	4.5759352455358e-09	2
bin	5.0576126398028e-09	6
bin	5.5392900340697e-09	2
bin	6.0209674283366e-09	2
bin	6.5026448226035e-09	3
bin	6.9843222168705e-09	4
bin	7.4659996111374e-09	2
bin	7.9476770054043e-09	0
bin	8.4293543996713e-09	2
bin	8.9110317939382e-09	4
bin	9.3927091882051e-09	1
bin	9.874386582472e-09	1
bin	1.0356063976739e-08	3
bin	1.0837741371006e-08	1269
statistic scenarioPRJP1.node[52].wlan.radio 	minSNIR:histogram
field count 6757
field mean 16855.892917641
field stddev 94581.814213745
field sum 113895268.4445
field sqrsum 62357087930959
field min 0.0021321169878839
field max 753239.71923443
attr source  minSNIR
attr title  "Min SNIR, histogram"
bin	-INF	0
bin	-6678.3531564978	0
bin	-5787.1934835205	0
bin	-4896.0338105433	0
bin	-4004.8741375661	0
bin	-3113.7144645889	0
bin	-2222.5547916117	0
bin	-1331.3951186345	0
bin	-440.23544565727	4530
bin	450.92422731995	616
bin	1342.0839002972	229
bin	2233.2435732744	135
bin	3124.4032462516	90
bin	4015.5629192288	111
bin	4906.722592206	47
bin	5797.8822651832	71
bin	6689.0419381604	66
bin	7580.2016111377	55
bin	8471.3612841149	65
bin	9362.5209570921	43
bin	10253.680630069	24
bin	11144.840303047	64
bin	12035.999976024	27
bin	12927.159649001	19
bin	13818.319321978	48
bin	14709.478994955	21
bin	15600.638667933	10
bin	16491.79834091	22
bin	17382.958013887	11
bin	18274.117686864	9
bin	19165.277359841	6
bin	20056.437032819	438
scalar scenarioPRJP1.node[52].lo0.lo 	droppedPkBitError:count 	0
attr interpolationmode  none
attr source  dropPkBitError
attr title  "packets dropped/bit error, count"
scalar scenarioPRJP1.node[52].lo0.lo 	droppedPkBitError:sum(packetBytes) 	0
attr interpolationmode  none
attr source  dropPkBitError
attr title  "packets dropped/bit error, sum(packetBytes)"
scalar scenarioPRJP1.node[52].lo0.lo 	rcvdPkFromHL:count 	3
attr interpolationmode  none
attr source  packetReceivedFromUpper
attr title  "packets received from higher layer, count"
scalar scenarioPRJP1.node[52].lo0.lo 	rcvdPkFromHL:sum(packetBytes) 	168
attr interpolationmode  none
attr source  packetReceivedFromUpper
attr title  "packets received from higher layer, sum(packetBytes)"
scalar scenarioPRJP1.node[52].lo0.lo 	passedUpPk:count 	3
attr interpolationmode  none
attr source  packetSentToUpper
attr title  "packets passed to higher layer, count"
scalar scenarioPRJP1.node[52].lo0.lo 	passedUpPk:sum(packetBytes) 	168
attr interpolationmode  none
attr source  packetSentToUpper
attr title  "packets passed to higher layer, sum(packetBytes)"
scalar scenarioPRJP1.node[31].app 	"Total sent" 	608
scalar scenarioPRJP1.node[31].app 	"Total received" 	27
scalar scenarioPRJP1.node[31].app 	"Total deleted" 	0
scalar scenarioPRJP1.node[31].app 	dropPk:count 	0
attr interpolationmode  none
attr source  dropPk
attr title  "packets dropped, count"
scalar scenarioPRJP1.node[31].app 	dropPk:sum(packetBytes) 	0
attr interpolationmode  none
attr source  dropPk
attr title  "packets dropped, sum(packetBytes)"
scalar scenarioPRJP1.node[31].app 	outOfOrderPk:count 	0
attr interpolationmode  none
attr source  outOfOrderPk
attr title  "packets received out of order, count"
scalar scenarioPRJP1.node[31].app 	outOfOrderPk:sum(packetBytes) 	0
attr interpolationmode  none
attr source  outOfOrderPk
attr title  "packets received out of order, sum(packetBytes)"
scalar scenarioPRJP1.node[31].app 	rcvdPk:count 	27
attr interpolationmode  none
attr source  rcvdPk
attr title  "packets received, count"
scalar scenarioPRJP1.node[31].app 	rcvdPk:sum(packetBytes) 	13824
attr interpolationmode  none
attr source  rcvdPk
attr title  "packets received, sum(packetBytes)"
statistic scenarioPRJP1.node[31].app 	endToEndDelay:histogram
field count 27
field mean 0.042297969976037
field stddev 0.19189801312535
field sum 1.142045189353
field sqrsum 1.0057522266084
field min 0.000945068817
field max 1.001854822959
attr interpolationmode  none
attr source  messageAge(rcvdPk)
attr title  "delay, histogram"
attr unit  s
bin	-INF	0
bin	-0.499509808254	0
bin	-0.4327824913112	0
bin	-0.3660551743684	0
bin	-0.2993278574256	0
bin	-0.2326005404828	0
bin	-0.16587322354	0
bin	-0.0991459065972	0
bin	-0.0324185896544	26
bin	0.0343087272884	0
bin	0.1010360442312	0
bin	0.167763361174	0
bin	0.2344906781168	0
bin	0.3012179950596	0
bin	0.3679453120024	0
bin	0.4346726289452	0
bin	0.501399945888	0
bin	0.5681272628308	0
bin	0.6348545797736	0
bin	0.7015818967164	0
bin	0.7683092136592	0
bin	0.835036530602	0
bin	0.9017638475448	0
bin	0.9684911644876	1
bin	1.0352184814304	0
bin	1.1019457983732	0
bin	1.168673115316	0
bin	1.2354004322588	0
bin	1.3021277492016	0
bin	1.3688550661444	0
bin	1.4355823830872	0
bin	1.50230970003	0
scalar scenarioPRJP1.node[31].app 	sentPk:count 	608
attr interpolationmode  none
attr source  sentPk
attr title  "packets sent, count"
scalar scenarioPRJP1.node[31].app 	sentPk:sum(packetBytes) 	311296
attr interpolationmode  none
attr source  sentPk
attr title  "packets sent, sum(packetBytes)"
scalar scenarioPRJP1.node[31].udp 	droppedPkBadChecksum:count 	0
attr interpolationmode  none
attr title  "packets dropped (checksum error), count"
scalar scenarioPRJP1.node[31].udp 	droppedPkWrongPort:count 	0
attr interpolationmode  none
attr title  "packets dropped (wrong port), count"
scalar scenarioPRJP1.node[31].udp 	passedUpPk:count 	27
attr interpolationmode  none
attr title  "packets passed up, count"
scalar scenarioPRJP1.node[31].udp 	rcvdPk:count 	27
attr interpolationmode  none
attr source  rcvdPk
attr title  "packets received, count"
scalar scenarioPRJP1.node[31].udp 	rcvdPk:sum(packetBytes) 	14040
attr interpolationmode  none
attr source  rcvdPk
attr title  "packets received, sum(packetBytes)"
scalar scenarioPRJP1.node[31].udp 	sentPk:count 	608
attr interpolationmode  none
attr source  sentPk
attr title  "packets sent, count"
scalar scenarioPRJP1.node[31].udp 	sentPk:sum(packetBytes) 	316160
attr interpolationmode  none
attr source  sentPk
attr title  "packets sent, sum(packetBytes)"
scalar scenarioPRJP1.node[31].networkLayer.arp 	failedARPResolution:count 	7
attr title  "ARP failed resolutions, count"
scalar scenarioPRJP1.node[31].networkLayer.arp 	completedARPResolution:count 	124
attr title  "ARP completed resolutions, count"
scalar scenarioPRJP1.node[31].networkLayer.arp 	initiatedARPResolution:count 	22
attr title  "ARP initiated resolutions, count"
scalar scenarioPRJP1.node[31].networkLayer.arp 	sentReply:count 	14
attr title  "ARP replies sent, count"
scalar scenarioPRJP1.node[31].networkLayer.arp 	sentReq:count 	41
attr title  "ARP request sent, count"
scalar scenarioPRJP1.node[31].mobility 	startTime 	2.5
scalar scenarioPRJP1.node[31].mobility 	totalTime 	245.1
scalar scenarioPRJP1.node[31].mobility 	stopTime 	247.7
scalar scenarioPRJP1.node[31].mobility 	minSpeed 	2.476918475168e-13
scalar scenarioPRJP1.node[31].mobility 	maxSpeed 	16.586717390635
scalar scenarioPRJP1.node[31].mobility 	totalDistance 	2234.1320231524
scalar scenarioPRJP1.node[31].mobility 	totalCO2Emission 	630.16834907739
scalar scenarioPRJP1.node[31].wlan.mgmt 	dataQueueLen:max 	2
attr interpolationmode  sample-hold
attr title  "data queue length, max"
scalar scenarioPRJP1.node[31].wlan.mgmt 	dataQueueLen:timeavg 	0
attr interpolationmode  sample-hold
attr title  "data queue length, timeavg"
scalar scenarioPRJP1.node[31].wlan.mgmt 	dropPkByQueue:count 	0
attr interpolationmode  none
attr source  dropPkByQueue
attr title  "packets dropped by queue, count"
scalar scenarioPRJP1.node[31].wlan.mgmt 	dropPkByQueue:sum(packetBytes) 	0
attr interpolationmode  none
attr source  dropPkByQueue
attr title  "packets dropped by queue, sum(packetBytes)"
scalar scenarioPRJP1.node[31].wlan.mac 	"number of received packets" 	262
scalar scenarioPRJP1.node[31].wlan.mac 	"number of collisions" 	1431
scalar scenarioPRJP1.node[31].wlan.mac 	"number of internal collisions" 	0
scalar scenarioPRJP1.node[31].wlan.mac 	"number of retry for AC 0" 	397
scalar scenarioPRJP1.node[31].wlan.mac 	"number of retry for AC 1" 	6
scalar scenarioPRJP1.node[31].wlan.mac 	"number of retry for AC 2" 	0
scalar scenarioPRJP1.node[31].wlan.mac 	"number of retry for AC 3" 	0
scalar scenarioPRJP1.node[31].wlan.mac 	"sent and received bits" 	6761792
scalar scenarioPRJP1.node[31].wlan.mac 	"sent packet within AC 0" 	184
scalar scenarioPRJP1.node[31].wlan.mac 	"sent packet within AC 1" 	4
scalar scenarioPRJP1.node[31].wlan.mac 	"sent packet within AC 2" 	0
scalar scenarioPRJP1.node[31].wlan.mac 	"sent packet within AC 3" 	0
scalar scenarioPRJP1.node[31].wlan.mac 	"sent in TXOP " 	0
scalar scenarioPRJP1.node[31].wlan.mac 	"sentWithoutRetry AC 0" 	173
scalar scenarioPRJP1.node[31].wlan.mac 	"sentWithoutRetry AC 1" 	4
scalar scenarioPRJP1.node[31].wlan.mac 	"sentWithoutRetry AC 2" 	0
scalar scenarioPRJP1.node[31].wlan.mac 	"sentWithoutRetry AC 3" 	0
scalar scenarioPRJP1.node[31].wlan.mac 	"numGivenUp AC 0" 	62
scalar scenarioPRJP1.node[31].wlan.mac 	"numGivenUp AC 1" 	1
scalar scenarioPRJP1.node[31].wlan.mac 	"numGivenUp AC 2" 	0
scalar scenarioPRJP1.node[31].wlan.mac 	"numGivenUp AC 3" 	0
scalar scenarioPRJP1.node[31].wlan.mac 	"numDropped AC 0" 	0
scalar scenarioPRJP1.node[31].wlan.mac 	"numDropped AC 1" 	0
scalar scenarioPRJP1.node[31].wlan.mac 	"numDropped AC 2" 	0
scalar scenarioPRJP1.node[31].wlan.mac 	"numDropped AC 3" 	0
scalar scenarioPRJP1.node[31].wlan.mac 	rcvdPkFromLL:count 	10030
attr interpolationmode  none
attr source  packetReceivedFromLower
attr title  "packets received from lower layer, count"
scalar scenarioPRJP1.node[31].wlan.mac 	rcvdPkFromLL:sum(packetBytes) 	6492264
attr interpolationmode  none
attr source  packetReceivedFromLower
attr title  "packets received from lower layer, sum(packetBytes)"
scalar scenarioPRJP1.node[31].wlan.mac 	sentDownPk:count 	1659
attr interpolationmode  none
attr source  packetSentToLower
attr title  "packets sent to lower layer, count"
scalar scenarioPRJP1.node[31].wlan.mac 	sentDownPk:sum(packetBytes) 	1085248
attr interpolationmode  none
attr source  packetSentToLower
attr title  "packets sent to lower layer, sum(packetBytes)"
scalar scenarioPRJP1.node[31].wlan.mac 	rcvdPkFromHL:count 	994
attr interpolationmode  none
attr source  packetReceivedFromUpper
attr title  "packets received from higher layer, count"
scalar scenarioPRJP1.node[31].wlan.mac 	rcvdPkFromHL:sum(packetBytes) 	876932
attr interpolationmode  none
attr source  packetReceivedFromUpper
attr title  "packets received from higher layer, sum(packetBytes)"
scalar scenarioPRJP1.node[31].wlan.mac 	passedUpPk:count 	4293
attr interpolationmode  none
attr source  packetSentToUpper
attr title  "packets passed to higher layer, count"
scalar scenarioPRJP1.node[31].wlan.mac 	passedUpPk:sum(packetBytes) 	4214352
attr interpolationmode  none
attr source  packetSentToUpper
attr title  "packets passed to higher layer, sum(packetBytes)"
statistic scenarioPRJP1.node[31].wlan.radio 	radioChannel:histogram
field count 1
field mean 3
field stddev -nan
field sum 3
field sqrsum 9
field min 3
field max 3
attr interpolationmode  sample-hold
attr source  radioChannelChanged
attr title  "Radio channel, histogram"
bin	-INF	0
bin	2	0
bin	3	1
bin	4	0
scalar scenarioPRJP1.node[31].wlan.radio 	transmissionState:count 	6636
attr interpolationmode  sample-hold
attr source  transmissionStateChanged
attr title  "Radio transmission state, count"
scalar scenarioPRJP1.node[31].wlan.radio 	receptionState:count 	23627
attr interpolationmode  sample-hold
attr source  receptionStateChanged
attr title  "Radio reception state, count"
scalar scenarioPRJP1.node[31].wlan.radio 	radioMode:count 	3320
attr interpolationmode  sample-hold
attr source  radioModeChanged
attr title  "Radio mode, count"
statistic scenarioPRJP1.node[31].wlan.radio 	symbolErrorRate:histogram
field count 0
field mean -nan
field stddev -nan
field sum 0
field sqrsum 0
field min -nan
field max -nan
attr source  symbolErrorRate
attr title  "Symbol error rate, histogram"
bin	-INF	0
bin	-0.5	0
bin	-0.46666666666667	0
bin	-0.43333333333333	0
bin	-0.4	0
bin	-0.36666666666667	0
bin	-0.33333333333333	0
bin	-0.3	0
bin	-0.26666666666667	0
bin	-0.23333333333333	0
bin	-0.2	0
bin	-0.16666666666667	0
bin	-0.13333333333333	0
bin	-0.1	0
bin	-0.066666666666667	0
bin	-0.033333333333333	0
bin	0	0
bin	0.033333333333333	0
bin	0.066666666666667	0
bin	0.1	0
bin	0.13333333333333	0
bin	0.16666666666667	0
bin	0.2	0
bin	0.23333333333333	0
bin	0.26666666666667	0
bin	0.3	0
bin	0.33333333333333	0
bin	0.36666666666667	0
bin	0.4	0
bin	0.43333333333333	0
bin	0.46666666666667	0
bin	0.5	0
statistic scenarioPRJP1.node[31].wlan.radio 	bitErrorRate:histogram
field count 0
field mean -nan
field stddev -nan
field sum 0
field sqrsum 0
field min -nan
field max -nan
attr source  bitErrorRate
attr title  "Bit error rate, histogram"
bin	-INF	0
bin	-0.5	0
bin	-0.46666666666667	0
bin	-0.43333333333333	0
bin	-0.4	0
bin	-0.36666666666667	0
bin	-0.33333333333333	0
bin	-0.3	0
bin	-0.26666666666667	0
bin	-0.23333333333333	0
bin	-0.2	0
bin	-0.16666666666667	0
bin	-0.13333333333333	0
bin	-0.1	0
bin	-0.066666666666667	0
bin	-0.033333333333333	0
bin	0	0
bin	0.033333333333333	0
bin	0.066666666666667	0
bin	0.1	0
bin	0.13333333333333	0
bin	0.16666666666667	0
bin	0.2	0
bin	0.23333333333333	0
bin	0.26666666666667	0
bin	0.3	0
bin	0.33333333333333	0
bin	0.36666666666667	0
bin	0.4	0
bin	0.43333333333333	0
bin	0.46666666666667	0
bin	0.5	0
statistic scenarioPRJP1.node[31].wlan.radio 	packetErrorRate:histogram
field count 10030
field mean 0.13220543267032
field stddev 0.32978699458856
field sum 1326.0204896833
field sqrsum 1266.055754958
field min 0
field max 1
attr source  packetErrorRate
attr title  "Packet error rate, histogram"
bin	-INF	1777
bin	-1.4215295607301e-11	0
bin	-1.231992285966e-11	0
bin	-1.042455011202e-11	0
bin	-8.5291773643803e-12	0
bin	-6.6338046167402e-12	0
bin	-4.7384318691002e-12	0
bin	-2.8430591214601e-12	0
bin	-9.4768637382003e-13	6804
bin	9.4768637382003e-13	66
bin	2.8430591214601e-12	31
bin	4.7384318691002e-12	15
bin	6.6338046167402e-12	17
bin	8.5291773643803e-12	13
bin	1.042455011202e-11	10
bin	1.231992285966e-11	5
bin	1.4215295607301e-11	9
bin	1.6110668354941e-11	9
bin	1.8006041102581e-11	5
bin	1.9901413850221e-11	2
bin	2.1796786597861e-11	6
bin	2.3692159345501e-11	6
bin	2.5587532093141e-11	3
bin	2.7482904840781e-11	5
bin	2.9378277588421e-11	2
bin	3.1273650336061e-11	2
bin	3.3169023083701e-11	3
bin	3.5064395831341e-11	5
bin	3.6959768578981e-11	1
bin	3.8855141326621e-11	5
bin	4.0750514074261e-11	4
bin	4.2645886821902e-11	1225
statistic scenarioPRJP1.node[31].wlan.radio 	minSNIR:histogram
field count 10030
field mean 5687.7287418353
field stddev 46941.035780863
field sum 57047919.280608
field sqrsum 22422981856322
field min 0.0097759695066027
field max 753239.71923443
attr source  minSNIR
attr title  "Min SNIR, histogram"
bin	-INF	0
bin	-26135.58682474	0
bin	-22649.991701796	0
bin	-19164.396578852	0
bin	-15678.801455908	0
bin	-12193.206332964	0
bin	-8707.6112100196	0
bin	-5222.0160870756	0
bin	-1736.4209641316	8761
bin	1749.1741588124	524
bin	5234.7692817564	137
bin	8720.3644047004	111
bin	12205.959527644	100
bin	15691.554650588	47
bin	19177.149773532	35
bin	22662.744896476	42
bin	26148.34001942	13
bin	29633.935142364	11
bin	33119.530265308	5
bin	36605.125388252	13
bin	40090.720511196	15
bin	43576.315634141	8
bin	47061.910757085	10
bin	50547.505880029	12
bin	54033.101002973	12
bin	57518.696125917	7
bin	61004.291248861	4
bin	64489.886371805	9
bin	67975.481494749	6
bin	71461.076617693	1
bin	74946.671740637	4
bin	78432.266863581	143
scalar scenarioPRJP1.node[31].lo0.lo 	droppedPkBitError:count 	0
attr interpolationmode  none
attr source  dropPkBitError
attr title  "packets dropped/bit error, count"
scalar scenarioPRJP1.node[31].lo0.lo 	droppedPkBitError:sum(packetBytes) 	0
attr interpolationmode  none
attr source  dropPkBitError
attr title  "packets dropped/bit error, sum(packetBytes)"
scalar scenarioPRJP1.node[31].lo0.lo 	rcvdPkFromHL:count 	1
attr interpolationmode  none
attr source  packetReceivedFromUpper
attr title  "packets received from higher layer, count"
scalar scenarioPRJP1.node[31].lo0.lo 	rcvdPkFromHL:sum(packetBytes) 	56
attr interpolationmode  none
attr source  packetReceivedFromUpper
attr title  "packets received from higher layer, sum(packetBytes)"
scalar scenarioPRJP1.node[31].lo0.lo 	passedUpPk:count 	1
attr interpolationmode  none
attr source  packetSentToUpper
attr title  "packets passed to higher layer, count"
scalar scenarioPRJP1.node[31].lo0.lo 	passedUpPk:sum(packetBytes) 	56
attr interpolationmode  none
attr source  packetSentToUpper
attr title  "packets passed to higher layer, sum(packetBytes)"
scalar scenarioPRJP1.node[84].app 	"Total sent" 	724
scalar scenarioPRJP1.node[84].app 	"Total received" 	45
scalar scenarioPRJP1.node[84].app 	"Total deleted" 	0
scalar scenarioPRJP1.node[84].app 	dropPk:count 	0
attr interpolationmode  none
attr source  dropPk
attr title  "packets dropped, count"
scalar scenarioPRJP1.node[84].app 	dropPk:sum(packetBytes) 	0
attr interpolationmode  none
attr source  dropPk
attr title  "packets dropped, sum(packetBytes)"
scalar scenarioPRJP1.node[84].app 	outOfOrderPk:count 	0
attr interpolationmode  none
attr source  outOfOrderPk
attr title  "packets received out of order, count"
scalar scenarioPRJP1.node[84].app 	outOfOrderPk:sum(packetBytes) 	0
attr interpolationmode  none
attr source  outOfOrderPk
attr title  "packets received out of order, sum(packetBytes)"
scalar scenarioPRJP1.node[84].app 	rcvdPk:count 	45
attr interpolationmode  none
attr source  rcvdPk
attr title  "packets received, count"
scalar scenarioPRJP1.node[84].app 	rcvdPk:sum(packetBytes) 	23040
attr interpolationmode  none
attr source  rcvdPk
attr title  "packets received, sum(packetBytes)"
statistic scenarioPRJP1.node[84].app 	endToEndDelay:histogram
field count 45
field mean 0.0064416440760444
field stddev 0.011623087179963
field sum 0.289873983422
field sqrsum 0.0078114958742028
field min 0.000945022685
field max 0.057594069845
attr interpolationmode  none
attr source  messageAge(rcvdPk)
attr title  "delay, histogram"
attr unit  s
bin	-INF	0
bin	-0.027379500895	0
bin	-0.023602897751	0
bin	-0.019826294607	0
bin	-0.016049691463	0
bin	-0.012273088319	0
bin	-0.008496485175	0
bin	-0.004719882031	0
bin	-0.000943278887	29
bin	0.002833324257	7
bin	0.006609927401	1
bin	0.010386530545	1
bin	0.014163133689	2
bin	0.017939736833	1
bin	0.021716339977	0
bin	0.025492943121	1
bin	0.029269546265	0
bin	0.033046149409	2
bin	0.036822752553	0
bin	0.040599355697	0
bin	0.044375958841	0
bin	0.048152561985	0
bin	0.051929165129	0
bin	0.055705768273	1
bin	0.059482371417	0
bin	0.063258974561	0
bin	0.067035577705	0
bin	0.070812180849	0
bin	0.074588783993	0
bin	0.078365387137	0
bin	0.082141990281	0
bin	0.085918593425	0
scalar scenarioPRJP1.node[84].app 	sentPk:count 	724
attr interpolationmode  none
attr source  sentPk
attr title  "packets sent, count"
scalar scenarioPRJP1.node[84].app 	sentPk:sum(packetBytes) 	370688
attr interpolationmode  none
attr source  sentPk
attr title  "packets sent, sum(packetBytes)"
scalar scenarioPRJP1.node[84].udp 	droppedPkBadChecksum:count 	0
attr interpolationmode  none
attr title  "packets dropped (checksum error), count"
scalar scenarioPRJP1.node[84].udp 	droppedPkWrongPort:count 	0
attr interpolationmode  none
attr title  "packets dropped (wrong port), count"
scalar scenarioPRJP1.node[84].udp 	passedUpPk:count 	45
attr interpolationmode  none
attr title  "packets passed up, count"
scalar scenarioPRJP1.node[84].udp 	rcvdPk:count 	45
attr interpolationmode  none
attr source  rcvdPk
attr title  "packets received, count"
scalar scenarioPRJP1.node[84].udp 	rcvdPk:sum(packetBytes) 	23400
attr interpolationmode  none
attr source  rcvdPk
attr title  "packets received, sum(packetBytes)"
scalar scenarioPRJP1.node[84].udp 	sentPk:count 	724
attr interpolationmode  none
attr source  sentPk
attr title  "packets sent, count"
scalar scenarioPRJP1.node[84].udp 	sentPk:sum(packetBytes) 	376480
attr interpolationmode  none
attr source  sentPk
attr title  "packets sent, sum(packetBytes)"
scalar scenarioPRJP1.node[84].networkLayer.arp 	failedARPResolution:count 	0
attr title  "ARP failed resolutions, count"
scalar scenarioPRJP1.node[84].networkLayer.arp 	completedARPResolution:count 	159
attr title  "ARP completed resolutions, count"
scalar scenarioPRJP1.node[84].networkLayer.arp 	initiatedARPResolution:count 	19
attr title  "ARP initiated resolutions, count"
scalar scenarioPRJP1.node[84].networkLayer.arp 	sentReply:count 	13
attr title  "ARP replies sent, count"
scalar scenarioPRJP1.node[84].networkLayer.arp 	sentReq:count 	22
attr title  "ARP request sent, count"
scalar scenarioPRJP1.node[84].mobility 	startTime 	9.7
scalar scenarioPRJP1.node[84].mobility 	totalTime 	273.8
scalar scenarioPRJP1.node[84].mobility 	stopTime 	283.6
scalar scenarioPRJP1.node[84].mobility 	minSpeed 	2.4755249643096e-13
scalar scenarioPRJP1.node[84].mobility 	maxSpeed 	17.59060787096
scalar scenarioPRJP1.node[84].mobility 	totalDistance 	2205.971196268
scalar scenarioPRJP1.node[84].mobility 	totalCO2Emission 	673.44006086583
scalar scenarioPRJP1.node[84].wlan.mgmt 	dataQueueLen:max 	0
attr interpolationmode  sample-hold
attr title  "data queue length, max"
scalar scenarioPRJP1.node[84].wlan.mgmt 	dataQueueLen:timeavg 	0
attr interpolationmode  sample-hold
attr title  "data queue length, timeavg"
scalar scenarioPRJP1.node[84].wlan.mgmt 	dropPkByQueue:count 	0
attr interpolationmode  none
attr source  dropPkByQueue
attr title  "packets dropped by queue, count"
scalar scenarioPRJP1.node[84].wlan.mgmt 	dropPkByQueue:sum(packetBytes) 	0
attr interpolationmode  none
attr source  dropPkByQueue
attr title  "packets dropped by queue, sum(packetBytes)"
scalar scenarioPRJP1.node[84].wlan.mac 	"number of received packets" 	490
scalar scenarioPRJP1.node[84].wlan.mac 	"number of collisions" 	1569
scalar scenarioPRJP1.node[84].wlan.mac 	"number of internal collisions" 	0
scalar scenarioPRJP1.node[84].wlan.mac 	"number of retry for AC 0" 	607
scalar scenarioPRJP1.node[84].wlan.mac 	"number of retry for AC 1" 	18
scalar scenarioPRJP1.node[84].wlan.mac 	"number of retry for AC 2" 	0
scalar scenarioPRJP1.node[84].wlan.mac 	"number of retry for AC 3" 	0
scalar scenarioPRJP1.node[84].wlan.mac 	"sent and received bits" 	7435520
scalar scenarioPRJP1.node[84].wlan.mac 	"sent packet within AC 0" 	251
scalar scenarioPRJP1.node[84].wlan.mac 	"sent packet within AC 1" 	6
scalar scenarioPRJP1.node[84].wlan.mac 	"sent packet within AC 2" 	0
scalar scenarioPRJP1.node[84].wlan.mac 	"sent packet within AC 3" 	0
scalar scenarioPRJP1.node[84].wlan.mac 	"sent in TXOP " 	0
scalar scenarioPRJP1.node[84].wlan.mac 	"sentWithoutRetry AC 0" 	232
scalar scenarioPRJP1.node[84].wlan.mac 	"sentWithoutRetry AC 1" 	6
scalar scenarioPRJP1.node[84].wlan.mac 	"sentWithoutRetry AC 2" 	0
scalar scenarioPRJP1.node[84].wlan.mac 	"sentWithoutRetry AC 3" 	0
scalar scenarioPRJP1.node[84].wlan.mac 	"numGivenUp AC 0" 	93
scalar scenarioPRJP1.node[84].wlan.mac 	"numGivenUp AC 1" 	3
scalar scenarioPRJP1.node[84].wlan.mac 	"numGivenUp AC 2" 	0
scalar scenarioPRJP1.node[84].wlan.mac 	"numGivenUp AC 3" 	0
scalar scenarioPRJP1.node[84].wlan.mac 	"numDropped AC 0" 	0
scalar scenarioPRJP1.node[84].wlan.mac 	"numDropped AC 1" 	0
scalar scenarioPRJP1.node[84].wlan.mac 	"numDropped AC 2" 	0
scalar scenarioPRJP1.node[84].wlan.mac 	"numDropped AC 3" 	0
scalar scenarioPRJP1.node[84].wlan.mac 	rcvdPkFromLL:count 	12464
attr interpolationmode  none
attr source  packetReceivedFromLower
attr title  "packets received from lower layer, count"
scalar scenarioPRJP1.node[84].wlan.mac 	rcvdPkFromLL:sum(packetBytes) 	7447308
attr interpolationmode  none
attr source  packetReceivedFromLower
attr title  "packets received from lower layer, sum(packetBytes)"
scalar scenarioPRJP1.node[84].wlan.mac 	sentDownPk:count 	2239
attr interpolationmode  none
attr source  packetSentToLower
attr title  "packets sent to lower layer, count"
scalar scenarioPRJP1.node[84].wlan.mac 	sentDownPk:sum(packetBytes) 	1318904
attr interpolationmode  none
attr source  packetSentToLower
attr title  "packets sent to lower layer, sum(packetBytes)"
scalar scenarioPRJP1.node[84].wlan.mac 	rcvdPkFromHL:count 	1124
attr interpolationmode  none
attr source  packetReceivedFromUpper
attr title  "packets received from higher layer, count"
scalar scenarioPRJP1.node[84].wlan.mac 	rcvdPkFromHL:sum(packetBytes) 	980212
attr interpolationmode  none
attr source  packetReceivedFromUpper
attr title  "packets received from higher layer, sum(packetBytes)"
scalar scenarioPRJP1.node[84].wlan.mac 	passedUpPk:count 	4524
attr interpolationmode  none
attr source  packetSentToUpper
attr title  "packets passed to higher layer, count"
scalar scenarioPRJP1.node[84].wlan.mac 	passedUpPk:sum(packetBytes) 	4423700
attr interpolationmode  none
attr source  packetSentToUpper
attr title  "packets passed to higher layer, sum(packetBytes)"
statistic scenarioPRJP1.node[84].wlan.radio 	radioChannel:histogram
field count 1
field mean 3
field stddev -nan
field sum 3
field sqrsum 9
field min 3
field max 3
attr interpolationmode  sample-hold
attr source  radioChannelChanged
attr title  "Radio channel, histogram"
bin	-INF	0
bin	2	0
bin	3	1
bin	4	0
scalar scenarioPRJP1.node[84].wlan.radio 	transmissionState:count 	8956
attr interpolationmode  sample-hold
attr source  transmissionStateChanged
attr title  "Radio transmission state, count"
scalar scenarioPRJP1.node[84].wlan.radio 	receptionState:count 	29604
attr interpolationmode  sample-hold
attr source  receptionStateChanged
attr title  "Radio reception state, count"
scalar scenarioPRJP1.node[84].wlan.radio 	radioMode:count 	4480
attr interpolationmode  sample-hold
attr source  radioModeChanged
attr title  "Radio mode, count"
statistic scenarioPRJP1.node[84].wlan.radio 	symbolErrorRate:histogram
field count 0
field mean -nan
field stddev -nan
field sum 0
field sqrsum 0
field min -nan
field max -nan
attr source  symbolErrorRate
attr title  "Symbol error rate, histogram"
bin	-INF	0
bin	-0.5	0
bin	-0.46666666666667	0
bin	-0.43333333333333	0
bin	-0.4	0
bin	-0.36666666666667	0
bin	-0.33333333333333	0
bin	-0.3	0
bin	-0.26666666666667	0
bin	-0.23333333333333	0
bin	-0.2	0
bin	-0.16666666666667	0
bin	-0.13333333333333	0
bin	-0.1	0
bin	-0.066666666666667	0
bin	-0.033333333333333	0
bin	0	0
bin	0.033333333333333	0
bin	0.066666666666667	0
bin	0.1	0
bin	0.13333333333333	0
bin	0.16666666666667	0
bin	0.2	0
bin	0.23333333333333	0
bin	0.26666666666667	0
bin	0.3	0
bin	0.33333333333333	0
bin	0.36666666666667	0
bin	0.4	0
bin	0.43333333333333	0
[...]
scalar scenarioPRJP1.node[72].wlan.mac 	passedUpPk:count 	14964
attr interpolationmode  none
attr source  packetSentToUpper
attr title  "packets passed to higher layer, count"
scalar scenarioPRJP1.node[72].wlan.mac 	passedUpPk:sum(packetBytes) 	14622560
attr interpolationmode  none
attr source  packetSentToUpper
attr title  "packets passed to higher layer, sum(packetBytes)"
statistic scenarioPRJP1.node[72].wlan.radio 	radioChannel:histogram
field count 1
field mean 3
field stddev -nan
field sum 3
field sqrsum 9
field min 3
field max 3
attr interpolationmode  sample-hold
attr source  radioChannelChanged
attr title  "Radio channel, histogram"
bin	-INF	0
bin	2	0
bin	3	1
bin	4	0
scalar scenarioPRJP1.node[72].wlan.radio 	transmissionState:count 	33008
attr interpolationmode  sample-hold
attr source  transmissionStateChanged
attr title  "Radio transmission state, count"
scalar scenarioPRJP1.node[72].wlan.radio 	receptionState:count 	99876
attr interpolationmode  sample-hold
attr source  receptionStateChanged
attr title  "Radio reception state, count"
scalar scenarioPRJP1.node[72].wlan.radio 	radioMode:count 	16506
attr interpolationmode  sample-hold
attr source  radioModeChanged
attr title  "Radio mode, count"
statistic scenarioPRJP1.node[72].wlan.radio 	symbolErrorRate:histogram
field count 0
field mean -nan
field stddev -nan
field sum 0
field sqrsum 0
field min -nan
field max -nan
attr source  symbolErrorRate
attr title  "Symbol error rate, histogram"
bin	-INF	0
bin	-0.5	0
bin	-0.46666666666667	0
bin	-0.43333333333333	0
bin	-0.4	0
bin	-0.36666666666667	0
bin	-0.33333333333333	0
bin	-0.3	0
bin	-0.26666666666667	0
bin	-0.23333333333333	0
bin	-0.2	0
bin	-0.16666666666667	0
bin	-0.13333333333333	0
bin	-0.1	0
bin	-0.066666666666667	0
bin	-0.033333333333333	0
bin	0	0
bin	0.033333333333333	0
bin	0.066666666666667	0
bin	0.1	0
bin	0.13333333333333	0
bin	0.16666666666667	0
bin	0.2	0
bin	0.23333333333333	0
bin	0.26666666666667	0
bin	0.3	0
bin	0.33333333333333	0
bin	0.36666666666667	0
bin	0.4	0
bin	0.43333333333333	0
bin	0.46666666666667	0
bin	0.5	0
statistic scenarioPRJP1.node[72].wlan.radio 	bitErrorRate:histogram
field count 0
field mean -nan
field stddev -nan
field sum 0
field sqrsum 0
field min -nan
field max -nan
attr source  bitErrorRate
attr title  "Bit error rate, histogram"
bin	-INF	0
bin	-0.5	0
bin	-0.46666666666667	0
bin	-0.43333333333333	0
bin	-0.4	0
bin	-0.36666666666667	0
bin	-0.33333333333333	0
bin	-0.3	0
bin	-0.26666666666667	0
bin	-0.23333333333333	0
bin	-0.2	0
bin	-0.16666666666667	0
bin	-0.13333333333333	0
bin	-0.1	0
bin	-0.066666666666667	0
bin	-0.033333333333333	0
bin	0	0
bin	0.033333333333333	0
bin	0.066666666666667	0
bin	0.1	0
bin	0.13333333333333	0
bin	0.16666666666667	0
bin	0.2	0
bin	0.23333333333333	0
bin	0.26666666666667	0
bin	0.3	0
bin	0.33333333333333	0
bin	0.36666666666667	0
bin	0.4	0
bin	0.43333333333333	0
bin	0.46666666666667	0
bin	0.5	0
statistic scenarioPRJP1.node[72].wlan.radio 	packetErrorRate:histogram
field count 41302
field mean 0.11575717897165
field stddev 0.31093455446679
field sum 4781.003005887
field sqrsum 4546.428373682
field min 0
field max 1
attr source  packetErrorRate
attr title  "Packet error rate, histogram"
bin	-INF	0
bin	-0.5	0
bin	-0.46666666666667	0
bin	-0.43333333333333	0
bin	-0.4	0
bin	-0.36666666666667	0
bin	-0.33333333333333	0
bin	-0.3	0
bin	-0.26666666666667	0
bin	-0.23333333333333	0
bin	-0.2	0
bin	-0.16666666666667	0
bin	-0.13333333333333	0
bin	-0.1	0
bin	-0.066666666666667	0
bin	-0.033333333333333	0
bin	0	35562
bin	0.033333333333333	233
bin	0.066666666666667	143
bin	0.1	102
bin	0.13333333333333	93
bin	0.16666666666667	65
bin	0.2	64
bin	0.23333333333333	59
bin	0.26666666666667	65
bin	0.3	40
bin	0.33333333333333	43
bin	0.36666666666667	43
bin	0.4	36
bin	0.43333333333333	25
bin	0.46666666666667	36
bin	0.5	4693
statistic scenarioPRJP1.node[72].wlan.radio 	minSNIR:histogram
field count 41302
field mean 4832.2672845711
field stddev 38999.465006418
field sum 199582303.38736
field sqrsum 63781532577004
field min 0.00035081385231344
field max 776081.96100771
attr source  minSNIR
attr title  "Min SNIR, histogram"
bin	-INF	0
bin	-14948.765714402	0
bin	-12954.625399778	0
bin	-10960.485085154	0
bin	-8966.34477053	0
bin	-6972.2044559061	0
bin	-4978.0641412821	0
bin	-2983.9238266582	0
bin	-989.78351203425	34460
bin	1004.3568025897	2507
bin	2998.4971172137	832
bin	4992.6374318376	505
bin	6986.7777464616	323
bin	8980.9180610855	217
bin	10975.058375709	322
bin	12969.198690333	316
bin	14963.339004957	119
bin	16957.479319581	85
bin	18951.619634205	103
bin	20945.759948829	126
bin	22939.900263453	312
bin	24934.040578077	62
bin	26928.180892701	41
bin	28922.321207325	48
bin	30916.461521949	39
bin	32910.601836573	32
bin	34904.742151197	20
bin	36898.882465821	29
bin	38893.022780445	22
bin	40887.163095069	23
bin	42881.303409693	20
bin	44875.443724317	739
scalar scenarioPRJP1.node[72].lo0.lo 	droppedPkBitError:count 	0
attr interpolationmode  none
attr source  dropPkBitError
attr title  "packets dropped/bit error, count"
scalar scenarioPRJP1.node[72].lo0.lo 	droppedPkBitError:sum(packetBytes) 	0
attr interpolationmode  none
attr source  dropPkBitError
attr title  "packets dropped/bit error, sum(packetBytes)"
scalar scenarioPRJP1.node[72].lo0.lo 	rcvdPkFromHL:count 	8
attr interpolationmode  none
attr source  packetReceivedFromUpper
attr title  "packets received from higher layer, count"
scalar scenarioPRJP1.node[72].lo0.lo 	rcvdPkFromHL:sum(packetBytes) 	448
attr interpolationmode  none
attr source  packetReceivedFromUpper
attr title  "packets received from higher layer, sum(packetBytes)"
scalar scenarioPRJP1.node[72].lo0.lo 	passedUpPk:count 	8
attr interpolationmode  none
attr source  packetSentToUpper
attr title  "packets passed to higher layer, count"
scalar scenarioPRJP1.node[72].lo0.lo 	passedUpPk:sum(packetBytes) 	448
attr interpolationmode  none
attr source  packetSentToUpper
attr title  "packets passed to higher layer, sum(packetBytes)"
scalar scenarioPRJP1.node[91].app 	"Total sent" 	2607
scalar scenarioPRJP1.node[91].app 	"Total received" 	146
scalar scenarioPRJP1.node[91].app 	"Total deleted" 	0
scalar scenarioPRJP1.node[91].app 	dropPk:count 	0
attr interpolationmode  none
attr source  dropPk
attr title  "packets dropped, count"
scalar scenarioPRJP1.node[91].app 	dropPk:sum(packetBytes) 	0
attr interpolationmode  none
attr source  dropPk
attr title  "packets dropped, sum(packetBytes)"
scalar scenarioPRJP1.node[91].app 	outOfOrderPk:count 	0
attr interpolationmode  none
attr source  outOfOrderPk
attr title  "packets received out of order, count"
scalar scenarioPRJP1.node[91].app 	outOfOrderPk:sum(packetBytes) 	0
attr interpolationmode  none
attr source  outOfOrderPk
attr title  "packets received out of order, sum(packetBytes)"
scalar scenarioPRJP1.node[91].app 	rcvdPk:count 	146
attr interpolationmode  none
attr source  rcvdPk
attr title  "packets received, count"
scalar scenarioPRJP1.node[91].app 	rcvdPk:sum(packetBytes) 	74752
attr interpolationmode  none
attr source  rcvdPk
attr title  "packets received, sum(packetBytes)"
statistic scenarioPRJP1.node[91].app 	endToEndDelay:histogram
field count 146
field mean 0.076263255827541
field stddev 0.27883442580517
field sum 11.134435350821
field sqrsum 12.122700658699
field min 0.000945011008
field max 2.060580226597
attr interpolationmode  none
attr source  messageAge(rcvdPk)
attr title  "delay, histogram"
attr unit  s
bin	-INF	0
bin	-0.8788288271255	0
bin	-0.7615256487077	0
bin	-0.6442224702899	0
bin	-0.5269192918721	0
bin	-0.4096161134543	0
bin	-0.2923129350365	0
bin	-0.1750097566187	0
bin	-0.0577065782009	134
bin	0.0595966002169	3
bin	0.1768997786347	0
bin	0.2942029570525	0
bin	0.4115061354703	0
bin	0.5288093138881	1
bin	0.6461124923059	0
bin	0.7634156707237	4
bin	0.8807188491415	0
bin	0.9980220275593	2
bin	1.1153252059771	0
bin	1.2326283843949	0
bin	1.3499315628127	0
bin	1.4672347412305	0
bin	1.5845379196483	0
bin	1.7018410980661	1
bin	1.8191442764839	0
bin	1.9364474549017	0
bin	2.0537506333195	1
bin	2.1710538117373	0
bin	2.2883569901551	0
bin	2.4056601685729	0
bin	2.5229633469907	0
bin	2.6402665254085	0
scalar scenarioPRJP1.node[91].app 	sentPk:count 	2607
attr interpolationmode  none
attr source  sentPk
attr title  "packets sent, count"
scalar scenarioPRJP1.node[91].app 	sentPk:sum(packetBytes) 	1334784
attr interpolationmode  none
attr source  sentPk
attr title  "packets sent, sum(packetBytes)"
scalar scenarioPRJP1.node[91].udp 	droppedPkBadChecksum:count 	0
attr interpolationmode  none
attr title  "packets dropped (checksum error), count"
scalar scenarioPRJP1.node[91].udp 	droppedPkWrongPort:count 	0
attr interpolationmode  none
attr title  "packets dropped (wrong port), count"
scalar scenarioPRJP1.node[91].udp 	passedUpPk:count 	146
attr interpolationmode  none
attr title  "packets passed up, count"
scalar scenarioPRJP1.node[91].udp 	rcvdPk:count 	146
attr interpolationmode  none
attr source  rcvdPk
attr title  "packets received, count"
scalar scenarioPRJP1.node[91].udp 	rcvdPk:sum(packetBytes) 	75920
attr interpolationmode  none
attr source  rcvdPk
attr title  "packets received, sum(packetBytes)"
scalar scenarioPRJP1.node[91].udp 	sentPk:count 	2607
attr interpolationmode  none
attr source  sentPk
attr title  "packets sent, count"
scalar scenarioPRJP1.node[91].udp 	sentPk:sum(packetBytes) 	1355640
attr interpolationmode  none
attr source  sentPk
attr title  "packets sent, sum(packetBytes)"
scalar scenarioPRJP1.node[91].networkLayer.arp 	failedARPResolution:count 	15
attr title  "ARP failed resolutions, count"
scalar scenarioPRJP1.node[91].networkLayer.arp 	completedARPResolution:count 	601
attr title  "ARP completed resolutions, count"
scalar scenarioPRJP1.node[91].networkLayer.arp 	initiatedARPResolution:count 	90
attr title  "ARP initiated resolutions, count"
scalar scenarioPRJP1.node[91].networkLayer.arp 	sentReply:count 	56
attr title  "ARP replies sent, count"
scalar scenarioPRJP1.node[91].networkLayer.arp 	sentReq:count 	149
attr title  "ARP request sent, count"
scalar scenarioPRJP1.node[91].mobility 	startTime 	9.7
scalar scenarioPRJP1.node[91].mobility 	totalTime 	940.3
scalar scenarioPRJP1.node[91].mobility 	stopTime 	950
scalar scenarioPRJP1.node[91].mobility 	minSpeed 	2.4756322012041e-13
scalar scenarioPRJP1.node[91].mobility 	maxSpeed 	18.304215405788
scalar scenarioPRJP1.node[91].mobility 	totalDistance 	8850.6127400349
scalar scenarioPRJP1.node[91].mobility 	totalCO2Emission 	2513.5219374141
scalar scenarioPRJP1.node[91].wlan.mgmt 	dataQueueLen:max 	3
attr interpolationmode  sample-hold
attr title  "data queue length, max"
scalar scenarioPRJP1.node[91].wlan.mgmt 	dataQueueLen:timeavg 	0
attr interpolationmode  sample-hold
attr title  "data queue length, timeavg"
scalar scenarioPRJP1.node[91].wlan.mgmt 	dropPkByQueue:count 	0
attr interpolationmode  none
attr source  dropPkByQueue
attr title  "packets dropped by queue, count"
scalar scenarioPRJP1.node[91].wlan.mgmt 	dropPkByQueue:sum(packetBytes) 	0
attr interpolationmode  none
attr source  dropPkByQueue
attr title  "packets dropped by queue, sum(packetBytes)"
scalar scenarioPRJP1.node[91].wlan.mac 	"number of received packets" 	2451
scalar scenarioPRJP1.node[91].wlan.mac 	"number of collisions" 	7391
scalar scenarioPRJP1.node[91].wlan.mac 	"number of internal collisions" 	2
scalar scenarioPRJP1.node[91].wlan.mac 	"number of retry for AC 0" 	2450
scalar scenarioPRJP1.node[91].wlan.mac 	"number of retry for AC 1" 	95
scalar scenarioPRJP1.node[91].wlan.mac 	"number of retry for AC 2" 	0
scalar scenarioPRJP1.node[91].wlan.mac 	"number of retry for AC 3" 	0
scalar scenarioPRJP1.node[91].wlan.mac 	"sent and received bits" 	34693920
scalar scenarioPRJP1.node[91].wlan.mac 	"sent packet within AC 0" 	1503
scalar scenarioPRJP1.node[91].wlan.mac 	"sent packet within AC 1" 	68
scalar scenarioPRJP1.node[91].wlan.mac 	"sent packet within AC 2" 	0
scalar scenarioPRJP1.node[91].wlan.mac 	"sent packet within AC 3" 	0
scalar scenarioPRJP1.node[91].wlan.mac 	"sent in TXOP " 	0
scalar scenarioPRJP1.node[91].wlan.mac 	"sentWithoutRetry AC 0" 	1430
scalar scenarioPRJP1.node[91].wlan.mac 	"sentWithoutRetry AC 1" 	64
scalar scenarioPRJP1.node[91].wlan.mac 	"sentWithoutRetry AC 2" 	0
scalar scenarioPRJP1.node[91].wlan.mac 	"sentWithoutRetry AC 3" 	0
scalar scenarioPRJP1.node[91].wlan.mac 	"numGivenUp AC 0" 	385
scalar scenarioPRJP1.node[91].wlan.mac 	"numGivenUp AC 1" 	15
scalar scenarioPRJP1.node[91].wlan.mac 	"numGivenUp AC 2" 	0
scalar scenarioPRJP1.node[91].wlan.mac 	"numGivenUp AC 3" 	0
scalar scenarioPRJP1.node[91].wlan.mac 	"numDropped AC 0" 	0
scalar scenarioPRJP1.node[91].wlan.mac 	"numDropped AC 1" 	0
scalar scenarioPRJP1.node[91].wlan.mac 	"numDropped AC 2" 	0
scalar scenarioPRJP1.node[91].wlan.mac 	"numDropped AC 3" 	0
scalar scenarioPRJP1.node[91].wlan.mac 	rcvdPkFromLL:count 	54706
attr interpolationmode  none
attr source  packetReceivedFromLower
attr title  "packets received from lower layer, count"
scalar scenarioPRJP1.node[91].wlan.mac 	rcvdPkFromLL:sum(packetBytes) 	32137104
attr interpolationmode  none
attr source  packetReceivedFromLower
attr title  "packets received from lower layer, sum(packetBytes)"
scalar scenarioPRJP1.node[91].wlan.mac 	sentDownPk:count 	10422
attr interpolationmode  none
attr source  packetSentToLower
attr title  "packets sent to lower layer, count"
scalar scenarioPRJP1.node[91].wlan.mac 	sentDownPk:sum(packetBytes) 	5936694
attr interpolationmode  none
attr source  packetSentToLower
attr title  "packets sent to lower layer, sum(packetBytes)"
scalar scenarioPRJP1.node[91].wlan.mac 	rcvdPkFromHL:count 	5428
attr interpolationmode  none
attr source  packetReceivedFromUpper
attr title  "packets received from higher layer, count"
scalar scenarioPRJP1.node[91].wlan.mac 	rcvdPkFromHL:sum(packetBytes) 	4549640
attr interpolationmode  none
attr source  packetReceivedFromUpper
attr title  "packets received from higher layer, sum(packetBytes)"
scalar scenarioPRJP1.node[91].wlan.mac 	passedUpPk:count 	19424
attr interpolationmode  none
attr source  packetSentToUpper
attr title  "packets passed to higher layer, count"
scalar scenarioPRJP1.node[91].wlan.mac 	passedUpPk:sum(packetBytes) 	18915488
attr interpolationmode  none
attr source  packetSentToUpper
attr title  "packets passed to higher layer, sum(packetBytes)"
statistic scenarioPRJP1.node[91].wlan.radio 	radioChannel:histogram
field count 1
field mean 3
field stddev -nan
field sum 3
field sqrsum 9
field min 3
field max 3
attr interpolationmode  sample-hold
attr source  radioChannelChanged
attr title  "Radio channel, histogram"
bin	-INF	0
bin	2	0
bin	3	1
bin	4	0
scalar scenarioPRJP1.node[91].wlan.radio 	transmissionState:count 	41688
attr interpolationmode  sample-hold
attr source  transmissionStateChanged
attr title  "Radio transmission state, count"
scalar scenarioPRJP1.node[91].wlan.radio 	receptionState:count 	131395
attr interpolationmode  sample-hold
attr source  receptionStateChanged
attr title  "Radio reception state, count"
scalar scenarioPRJP1.node[91].wlan.radio 	radioMode:count 	20846
attr interpolationmode  sample-hold
attr source  radioModeChanged
attr title  "Radio mode, count"
statistic scenarioPRJP1.node[91].wlan.radio 	symbolErrorRate:histogram
field count 0
field mean -nan
field stddev -nan
field sum 0
field sqrsum 0
field min -nan
field max -nan
attr source  symbolErrorRate
attr title  "Symbol error rate, histogram"
bin	-INF	0
bin	-0.5	0
bin	-0.46666666666667	0
bin	-0.43333333333333	0
bin	-0.4	0
bin	-0.36666666666667	0
bin	-0.33333333333333	0
bin	-0.3	0
bin	-0.26666666666667	0
bin	-0.23333333333333	0
bin	-0.2	0
bin	-0.16666666666667	0
bin	-0.13333333333333	0
bin	-0.1	0
bin	-0.066666666666667	0
bin	-0.033333333333333	0
bin	0	0
bin	0.033333333333333	0
bin	0.066666666666667	0
bin	0.1	0
bin	0.13333333333333	0
bin	0.16666666666667	0
bin	0.2	0
bin	0.23333333333333	0
bin	0.26666666666667	0
bin	0.3	0
bin	0.33333333333333	0
bin	0.36666666666667	0
bin	0.4	0
bin	0.43333333333333	0
bin	0.46666666666667	0
bin	0.5	0
statistic scenarioPRJP1.node[91].wlan.radio 	bitErrorRate:histogram
field count 0
field mean -nan
field stddev -nan
field sum 0
field sqrsum 0
field min -nan
field max -nan
attr source  bitErrorRate
attr title  "Bit error rate, histogram"
bin	-INF	0
bin	-0.5	0
bin	-0.46666666666667	0
bin	-0.43333333333333	0
bin	-0.4	0
bin	-0.36666666666667	0
bin	-0.33333333333333	0
bin	-0.3	0
bin	-0.26666666666667	0
bin	-0.23333333333333	0
bin	-0.2	0
bin	-0.16666666666667	0
bin	-0.13333333333333	0
bin	-0.1	0
bin	-0.066666666666667	0
bin	-0.033333333333333	0
bin	0	0
bin	0.033333333333333	0
bin	0.066666666666667	0
bin	0.1	0
bin	0.13333333333333	0
bin	0.16666666666667	0
bin	0.2	0
bin	0.23333333333333	0
bin	0.26666666666667	0
bin	0.3	0
bin	0.33333333333333	0
bin	0.36666666666667	0
bin	0.4	0
bin	0.43333333333333	0
bin	0.46666666666667	0
bin	0.5	0
statistic scenarioPRJP1.node[91].wlan.radio 	packetErrorRate:histogram
field count 54706
field mean 0.12626992875473
field stddev 0.3239660949353
field sum 6907.7227224561
field sqrsum 6613.7479036945
field min 0
field max 1
attr source  packetErrorRate
attr title  "Packet error rate, histogram"
bin	-INF	0
bin	-0.5	0
bin	-0.46666666666667	0
bin	-0.43333333333333	0
bin	-0.4	0
bin	-0.36666666666667	0
bin	-0.33333333333333	0
bin	-0.3	0
bin	-0.26666666666667	0
bin	-0.23333333333333	0
bin	-0.2	0
bin	-0.16666666666667	0
bin	-0.13333333333333	0
bin	-0.1	0
bin	-0.066666666666667	0
bin	-0.033333333333333	0
bin	0	46649
bin	0.033333333333333	273
bin	0.066666666666667	159
bin	0.1	133
bin	0.13333333333333	96
bin	0.16666666666667	94
bin	0.2	58
bin	0.23333333333333	62
bin	0.26666666666667	70
bin	0.3	53
bin	0.33333333333333	46
bin	0.36666666666667	48
bin	0.4	64
bin	0.43333333333333	54
bin	0.46666666666667	36
bin	0.5	6811
statistic scenarioPRJP1.node[91].wlan.radio 	minSNIR:histogram
field count 54706
field mean 9171.4849552664
field stddev 68132.984228259
field sum 501735255.96281
field sqrsum 2.5854793149898e+14
field min 0.00021058302020663
field max 3251250.6115896
attr source  minSNIR
attr title  "Min SNIR, histogram"
bin	-INF	0
bin	-21202.647321111	0
bin	-18374.512137483	0
bin	-15546.376953855	0
bin	-12718.241770227	0
bin	-9890.1065865993	0
bin	-7061.9714029715	0
bin	-4233.8362193436	0
bin	-1405.7010357157	46710
bin	1422.4341479122	2615
bin	4250.56933154	1046
bin	7078.7045151679	623
bin	9906.8396987958	571
bin	12734.974882424	406
bin	15563.110066052	209
bin	18391.245249679	191
bin	21219.380433307	201
bin	24047.515616935	218
bin	26875.650800563	104
bin	29703.785984191	79
bin	32531.921167819	131
bin	35360.056351447	44
bin	38188.191535075	48
bin	41016.326718702	47
bin	43844.46190233	24
bin	46672.597085958	62
bin	49500.732269586	30
bin	52328.867453214	38
bin	55157.002636842	63
bin	57985.13782047	47
bin	60813.273004098	52
bin	63641.408187725	1147
scalar scenarioPRJP1.node[91].lo0.lo 	droppedPkBitError:count 	0
attr interpolationmode  none
attr source  dropPkBitError
attr title  "packets dropped/bit error, count"
scalar scenarioPRJP1.node[91].lo0.lo 	droppedPkBitError:sum(packetBytes) 	0
attr interpolationmode  none
attr source  dropPkBitError
attr title  "packets dropped/bit error, sum(packetBytes)"
scalar scenarioPRJP1.node[91].lo0.lo 	rcvdPkFromHL:count 	11
attr interpolationmode  none
attr source  packetReceivedFromUpper
attr title  "packets received from higher layer, count"
scalar scenarioPRJP1.node[91].lo0.lo 	rcvdPkFromHL:sum(packetBytes) 	616
attr interpolationmode  none
attr source  packetReceivedFromUpper
attr title  "packets received from higher layer, sum(packetBytes)"
scalar scenarioPRJP1.node[91].lo0.lo 	passedUpPk:count 	11
attr interpolationmode  none
attr source  packetSentToUpper
attr title  "packets passed to higher layer, count"
scalar scenarioPRJP1.node[91].lo0.lo 	passedUpPk:sum(packetBytes) 	616
attr interpolationmode  none
attr source  packetSentToUpper
attr title  "packets passed to higher layer, sum(packetBytes)"
