version 2
run OLSR-ETX-FS-100n-4-20150817-23:05:59-6196
attr configname OLSR-ETX-FS-100n
attr datetime 20150817-23:05:59
attr experiment OLSR-ETX-FS-100n
attr inifile omnetpp.ini
attr iterationvars ""
attr iterationvars2 $repetition=4
attr measurement ""
attr network Prj_Part1_propag.scenarioPRJP1
attr processid 6196
attr repetition 4
attr replication #4
attr resultdir results
attr runnumber 4
attr seedset 4

scalar scenarioPRJP1.radioMedium.propagation 	"Arrival computation count" 	83313148
scalar scenarioPRJP1.radioMedium 	"transmission count" 	841733
scalar scenarioPRJP1.radioMedium 	"radio frame send count" 	83313029
scalar scenarioPRJP1.radioMedium 	"reception computation count" 	82728078
scalar scenarioPRJP1.radioMedium 	"interference computation count" 	224928972
scalar scenarioPRJP1.radioMedium 	"reception decision computation count" 	5727606
scalar scenarioPRJP1.radioMedium 	"listening decision computation count" 	137596861
scalar scenarioPRJP1.radioMedium 	"reception cache hit" 	88.83896760321
attr unit  %
scalar scenarioPRJP1.radioMedium 	"interference cache hit" 	50
attr unit  %
scalar scenarioPRJP1.radioMedium 	"noise cache hit" 	0
attr unit  %
scalar scenarioPRJP1.radioMedium 	"snir cache hit" 	0
attr unit  %
scalar scenarioPRJP1.radioMedium 	"reception decision cache hit" 	0
attr unit  %
scalar scenarioPRJP1.node[0].app 	"Total sent" 	2613
scalar scenarioPRJP1.node[0].app 	"Total received" 	153
scalar scenarioPRJP1.node[0].app 	"Total deleted" 	0
scalar scenarioPRJP1.node[0].app 	dropPk:count 	0
attr interpolationmode  none
attr source  dropPk
attr title  "packets dropped, count"
scalar scenarioPRJP1.node[0].app 	dropPk:sum(packetBytes) 	0
attr interpolationmode  none
attr source  dropPk
attr title  "packets dropped, sum(packetBytes)"
scalar scenarioPRJP1.node[0].app 	outOfOrderPk:count 	0
attr interpolationmode  none
attr source  outOfOrderPk
attr title  "packets received out of order, count"
scalar scenarioPRJP1.node[0].app 	outOfOrderPk:sum(packetBytes) 	0
attr interpolationmode  none
attr source  outOfOrderPk
attr title  "packets received out of order, sum(packetBytes)"
scalar scenarioPRJP1.node[0].app 	rcvdPk:count 	153
attr interpolationmode  none
attr source  rcvdPk
attr title  "packets received, count"
scalar scenarioPRJP1.node[0].app 	rcvdPk:sum(packetBytes) 	78336
attr interpolationmode  none
attr source  rcvdPk
attr title  "packets received, sum(packetBytes)"
statistic scenarioPRJP1.node[0].app 	endToEndDelay:histogram
field count 153
field mean 0.18382456107444
field stddev 0.44188960635243
field sum 28.12515784439
field sqrsum 34.850591274644
field min 0.000945023169
field max 2.264557300813
attr interpolationmode  none
attr source  messageAge(rcvdPk)
attr title  "delay, histogram"
attr unit  s
bin	-INF	0
bin	-1.130861115653	0
bin	-0.97995363047673	0
bin	-0.82904614530047	0
bin	-0.6781386601242	0
bin	-0.52723117494793	0
bin	-0.37632368977167	0
bin	-0.2254162045954	0
bin	-0.074508719419133	127
bin	0.076398765757133	0
bin	0.2273062509334	2
bin	0.37821373610967	1
bin	0.52912122128593	3
bin	0.6800287064622	3
bin	0.83093619163847	0
bin	0.98184367681473	12
bin	1.132751161991	1
bin	1.2836586471673	0
bin	1.4345661323435	0
bin	1.5854736175198	0
bin	1.7363811026961	0
bin	1.8872885878723	2
bin	2.0381960730486	1
bin	2.1891035582249	1
bin	2.3400110434011	0
bin	2.4909185285774	0
bin	2.6418260137537	0
bin	2.7927334989299	0
bin	2.9436409841062	0
bin	3.0945484692825	0
bin	3.2454559544587	0
bin	3.396363439635	0
scalar scenarioPRJP1.node[0].app 	sentPk:count 	2613
attr interpolationmode  none
attr source  sentPk
attr title  "packets sent, count"
scalar scenarioPRJP1.node[0].app 	sentPk:sum(packetBytes) 	1337856
attr interpolationmode  none
attr source  sentPk
attr title  "packets sent, sum(packetBytes)"
scalar scenarioPRJP1.node[0].udp 	droppedPkBadChecksum:count 	0
attr interpolationmode  none
attr title  "packets dropped (checksum error), count"
scalar scenarioPRJP1.node[0].udp 	droppedPkWrongPort:count 	0
attr interpolationmode  none
attr title  "packets dropped (wrong port), count"
scalar scenarioPRJP1.node[0].udp 	passedUpPk:count 	153
attr interpolationmode  none
attr title  "packets passed up, count"
scalar scenarioPRJP1.node[0].udp 	rcvdPk:count 	153
attr interpolationmode  none
attr source  rcvdPk
attr title  "packets received, count"
scalar scenarioPRJP1.node[0].udp 	rcvdPk:sum(packetBytes) 	79560
attr interpolationmode  none
attr source  rcvdPk
attr title  "packets received, sum(packetBytes)"
scalar scenarioPRJP1.node[0].udp 	sentPk:count 	2613
attr interpolationmode  none
attr source  sentPk
attr title  "packets sent, count"
scalar scenarioPRJP1.node[0].udp 	sentPk:sum(packetBytes) 	1358760
attr interpolationmode  none
attr source  sentPk
attr title  "packets sent, sum(packetBytes)"
scalar scenarioPRJP1.node[0].networkLayer.arp 	failedARPResolution:count 	12
attr title  "ARP failed resolutions, count"
scalar scenarioPRJP1.node[0].networkLayer.arp 	completedARPResolution:count 	765
attr title  "ARP completed resolutions, count"
scalar scenarioPRJP1.node[0].networkLayer.arp 	initiatedARPResolution:count 	87
attr title  "ARP initiated resolutions, count"
scalar scenarioPRJP1.node[0].networkLayer.arp 	sentReply:count 	56
attr title  "ARP replies sent, count"
scalar scenarioPRJP1.node[0].networkLayer.arp 	sentReq:count 	142
attr title  "ARP request sent, count"
scalar scenarioPRJP1.node[0].mobility 	startTime 	0.1
scalar scenarioPRJP1.node[0].mobility 	totalTime 	949.9
scalar scenarioPRJP1.node[0].mobility 	stopTime 	950
scalar scenarioPRJP1.node[0].mobility 	minSpeed 	2.4756172716913e-13
scalar scenarioPRJP1.node[0].mobility 	maxSpeed 	21.67199643465
scalar scenarioPRJP1.node[0].mobility 	totalDistance 	9976.0829650083
scalar scenarioPRJP1.node[0].mobility 	totalCO2Emission 	3120.7738635507
scalar scenarioPRJP1.node[0].wlan.mgmt 	dataQueueLen:max 	2
attr interpolationmode  sample-hold
attr title  "data queue length, max"
scalar scenarioPRJP1.node[0].wlan.mgmt 	dataQueueLen:timeavg 	0
attr interpolationmode  sample-hold
attr title  "data queue length, timeavg"
scalar scenarioPRJP1.node[0].wlan.mgmt 	dropPkByQueue:count 	0
attr interpolationmode  none
attr source  dropPkByQueue
attr title  "packets dropped by queue, count"
scalar scenarioPRJP1.node[0].wlan.mgmt 	dropPkByQueue:sum(packetBytes) 	0
attr interpolationmode  none
attr source  dropPkByQueue
attr title  "packets dropped by queue, sum(packetBytes)"
scalar scenarioPRJP1.node[0].wlan.mac 	"number of received packets" 	1578
scalar scenarioPRJP1.node[0].wlan.mac 	"number of collisions" 	10621
scalar scenarioPRJP1.node[0].wlan.mac 	"number of internal collisions" 	0
scalar scenarioPRJP1.node[0].wlan.mac 	"number of retry for AC 0" 	2677
scalar scenarioPRJP1.node[0].wlan.mac 	"number of retry for AC 1" 	33
scalar scenarioPRJP1.node[0].wlan.mac 	"number of retry for AC 2" 	0
scalar scenarioPRJP1.node[0].wlan.mac 	"number of retry for AC 3" 	0
scalar scenarioPRJP1.node[0].wlan.mac 	"sent and received bits" 	27544768
scalar scenarioPRJP1.node[0].wlan.mac 	"sent packet within AC 0" 	778
scalar scenarioPRJP1.node[0].wlan.mac 	"sent packet within AC 1" 	35
scalar scenarioPRJP1.node[0].wlan.mac 	"sent packet within AC 2" 	0
scalar scenarioPRJP1.node[0].wlan.mac 	"sent packet within AC 3" 	0
scalar scenarioPRJP1.node[0].wlan.mac 	"sent in TXOP " 	0
scalar scenarioPRJP1.node[0].wlan.mac 	"sentWithoutRetry AC 0" 	701
scalar scenarioPRJP1.node[0].wlan.mac 	"sentWithoutRetry AC 1" 	34
scalar scenarioPRJP1.node[0].wlan.mac 	"sentWithoutRetry AC 2" 	0
scalar scenarioPRJP1.node[0].wlan.mac 	"sentWithoutRetry AC 3" 	0
scalar scenarioPRJP1.node[0].wlan.mac 	"numGivenUp AC 0" 	416
scalar scenarioPRJP1.node[0].wlan.mac 	"numGivenUp AC 1" 	5
scalar scenarioPRJP1.node[0].wlan.mac 	"numGivenUp AC 2" 	0
scalar scenarioPRJP1.node[0].wlan.mac 	"numGivenUp AC 3" 	0
scalar scenarioPRJP1.node[0].wlan.mac 	"numDropped AC 0" 	0
scalar scenarioPRJP1.node[0].wlan.mac 	"numDropped AC 1" 	0
scalar scenarioPRJP1.node[0].wlan.mac 	"numDropped AC 2" 	0
scalar scenarioPRJP1.node[0].wlan.mac 	"numDropped AC 3" 	0
scalar scenarioPRJP1.node[0].wlan.mac 	rcvdPkFromLL:count 	70110
attr interpolationmode  none
attr source  packetReceivedFromLower
attr title  "packets received from lower layer, count"
scalar scenarioPRJP1.node[0].wlan.mac 	rcvdPkFromLL:sum(packetBytes) 	39991140
attr interpolationmode  none
attr source  packetReceivedFromLower
attr title  "packets received from lower layer, sum(packetBytes)"
scalar scenarioPRJP1.node[0].wlan.mac 	sentDownPk:count 	8514
attr interpolationmode  none
attr source  packetSentToLower
attr title  "packets sent to lower layer, count"
scalar scenarioPRJP1.node[0].wlan.mac 	sentDownPk:sum(packetBytes) 	5154508
attr interpolationmode  none
attr source  packetSentToLower
attr title  "packets sent to lower layer, sum(packetBytes)"
scalar scenarioPRJP1.node[0].wlan.mac 	rcvdPkFromHL:count 	4226
attr interpolationmode  none
attr source  packetReceivedFromUpper
attr title  "packets received from higher layer, count"
scalar scenarioPRJP1.node[0].wlan.mac 	rcvdPkFromHL:sum(packetBytes) 	3669860
attr interpolationmode  none
attr source  packetReceivedFromUpper
attr title  "packets received from higher layer, sum(packetBytes)"
scalar scenarioPRJP1.node[0].wlan.mac 	passedUpPk:count 	21393
attr interpolationmode  none
attr source  packetSentToUpper
attr title  "packets passed to higher layer, count"
scalar scenarioPRJP1.node[0].wlan.mac 	passedUpPk:sum(packetBytes) 	21115988
attr interpolationmode  none
attr source  packetSentToUpper
attr title  "packets passed to higher layer, sum(packetBytes)"
statistic scenarioPRJP1.node[0].wlan.radio 	radioChannel:histogram
field count 1
field mean 3
field stddev -nan
field sum 3
field sqrsum 9
field min 3
field max 3
attr interpolationmode  sample-hold
attr source  radioChannelChanged
attr title  "Radio channel, histogram"
bin	-INF	0
bin	2	0
bin	3	1
bin	4	0
scalar scenarioPRJP1.node[0].wlan.radio 	transmissionState:count 	34056
attr interpolationmode  sample-hold
attr source  transmissionStateChanged
attr title  "Radio transmission state, count"
scalar scenarioPRJP1.node[0].wlan.radio 	receptionState:count 	159448
attr interpolationmode  sample-hold
attr source  receptionStateChanged
attr title  "Radio reception state, count"
scalar scenarioPRJP1.node[0].wlan.radio 	radioMode:count 	17030
attr interpolationmode  sample-hold
attr source  radioModeChanged
attr title  "Radio mode, count"
statistic scenarioPRJP1.node[0].wlan.radio 	symbolErrorRate:histogram
field count 0
field mean -nan
field stddev -nan
field sum 0
field sqrsum 0
field min -nan
field max -nan
attr source  symbolErrorRate
attr title  "Symbol error rate, histogram"
bin	-INF	0
bin	-0.5	0
bin	-0.46666666666667	0
bin	-0.43333333333333	0
bin	-0.4	0
bin	-0.36666666666667	0
bin	-0.33333333333333	0
bin	-0.3	0
bin	-0.26666666666667	0
bin	-0.23333333333333	0
bin	-0.2	0
bin	-0.16666666666667	0
bin	-0.13333333333333	0
bin	-0.1	0
bin	-0.066666666666667	0
bin	-0.033333333333333	0
bin	-6.9388939039072e-18	0
bin	0.033333333333333	0
bin	0.066666666666667	0
bin	0.1	0
bin	0.13333333333333	0
bin	0.16666666666667	0
bin	0.2	0
bin	0.23333333333333	0
bin	0.26666666666667	0
bin	0.3	0
bin	0.33333333333333	0
bin	0.36666666666667	0
bin	0.4	0
bin	0.43333333333333	0
bin	0.46666666666667	0
bin	0.5	0
statistic scenarioPRJP1.node[0].wlan.radio 	bitErrorRate:histogram
field count 0
field mean -nan
field stddev -nan
field sum 0
field sqrsum 0
field min -nan
field max -nan
attr source  bitErrorRate
attr title  "Bit error rate, histogram"
bin	-INF	0
bin	-0.5	0
bin	-0.46666666666667	0
bin	-0.43333333333333	0
bin	-0.4	0
bin	-0.36666666666667	0
bin	-0.33333333333333	0
bin	-0.3	0
bin	-0.26666666666667	0
bin	-0.23333333333333	0
bin	-0.2	0
bin	-0.16666666666667	0
bin	-0.13333333333333	0
bin	-0.1	0
bin	-0.066666666666667	0
bin	-0.033333333333333	0
bin	-6.9388939039072e-18	0
bin	0.033333333333333	0
bin	0.066666666666667	0
bin	0.1	0
bin	0.13333333333333	0
bin	0.16666666666667	0
bin	0.2	0
bin	0.23333333333333	0
bin	0.26666666666667	0
bin	0.3	0
bin	0.33333333333333	0
bin	0.36666666666667	0
bin	0.4	0
bin	0.43333333333333	0
bin	0.46666666666667	0
bin	0.5	0
statistic scenarioPRJP1.node[0].wlan.radio 	packetErrorRate:histogram
field count 70110
field mean 0.14085658564139
field stddev 0.33982117458195
field sum 9875.4552193178
field sqrsum 9487.1002013912
field min 0
field max 1
attr source  packetErrorRate
attr title  "Packet error rate, histogram"
bin	-INF	0
bin	-0.5	0
bin	-0.43333333333333	0
bin	-0.36666666666667	0
bin	-0.3	0
bin	-0.23333333333333	0
bin	-0.16666666666667	0
bin	-0.1	0
bin	-0.033333333333333	58627
bin	0.033333333333333	667
bin	0.1	313
bin	0.16666666666667	202
bin	0.23333333333333	183
bin	0.3	154
bin	0.36666666666667	113
bin	0.43333333333333	94
bin	0.5	115
bin	0.56666666666667	93
bin	0.63333333333333	101
bin	0.7	110
bin	0.76666666666667	106
bin	0.83333333333333	135
bin	0.9	210
bin	0.96666666666667	8887
bin	1.0333333333333	0
bin	1.1	0
bin	1.1666666666667	0
bin	1.2333333333333	0
bin	1.3	0
bin	1.3666666666667	0
bin	1.4333333333333	0
bin	1.5	0
statistic scenarioPRJP1.node[0].wlan.radio 	minSNIR:histogram
field count 70110
field mean 6400.4246882134
field stddev 46506.302284868
field sum 448733774.89064
field sqrsum 1.5450636652664e+14
field min 0.00032023884729872
field max 753239.71923443
attr source  minSNIR
attr title  "Min SNIR, histogram"
bin	-INF	0
bin	-11242.87604402	0
bin	-9743.7392127452	0
bin	-8244.60238147	0
bin	-6745.4655501948	0
bin	-5246.3287189197	0
bin	-3747.1918876445	0
bin	-2248.0550563694	0
bin	-748.9182250942	55857
bin	750.21860618096	5231
bin	2249.3554374561	1856
bin	3748.4922687313	952
bin	5247.6291000064	638
bin	6746.7659312816	558
bin	8245.9027625568	368
bin	9745.0395938319	424
bin	11244.176425107	328
bin	12743.313256382	272
bin	14242.450087657	153
bin	15741.586918933	132
bin	17240.723750208	135
bin	18739.860581483	177
bin	20238.997412758	125
bin	21738.134244033	207
bin	23237.271075308	152
bin	24736.407906584	67
bin	26235.544737859	80
bin	27734.681569134	67
bin	29233.818400409	54
bin	30732.955231684	122
bin	32232.092062959	96
bin	33731.228894235	2059
scalar scenarioPRJP1.node[0].lo0.lo 	droppedPkBitError:count 	0
attr interpolationmode  none
attr source  dropPkBitError
attr title  "packets dropped/bit error, count"
scalar scenarioPRJP1.node[0].lo0.lo 	droppedPkBitError:sum(packetBytes) 	0
attr interpolationmode  none
attr source  dropPkBitError
attr title  "packets dropped/bit error, sum(packetBytes)"
scalar scenarioPRJP1.node[0].lo0.lo 	rcvdPkFromHL:count 	8
attr interpolationmode  none
attr source  packetReceivedFromUpper
attr title  "packets received from higher layer, count"
scalar scenarioPRJP1.node[0].lo0.lo 	rcvdPkFromHL:sum(packetBytes) 	448
attr interpolationmode  none
attr source  packetReceivedFromUpper
attr title  "packets received from higher layer, sum(packetBytes)"
scalar scenarioPRJP1.node[0].lo0.lo 	passedUpPk:count 	8
attr interpolationmode  none
attr source  packetSentToUpper
attr title  "packets passed to higher layer, count"
scalar scenarioPRJP1.node[0].lo0.lo 	passedUpPk:sum(packetBytes) 	448
attr interpolationmode  none
attr source  packetSentToUpper
attr title  "packets passed to higher layer, sum(packetBytes)"
scalar scenarioPRJP1.node[21].app 	"Total sent" 	2623
scalar scenarioPRJP1.node[21].app 	"Total received" 	152
scalar scenarioPRJP1.node[21].app 	"Total deleted" 	0
scalar scenarioPRJP1.node[21].app 	dropPk:count 	0
attr interpolationmode  none
attr source  dropPk
attr title  "packets dropped, count"
scalar scenarioPRJP1.node[21].app 	dropPk:sum(packetBytes) 	0
attr interpolationmode  none
attr source  dropPk
attr title  "packets dropped, sum(packetBytes)"
scalar scenarioPRJP1.node[21].app 	outOfOrderPk:count 	0
attr interpolationmode  none
attr source  outOfOrderPk
attr title  "packets received out of order, count"
scalar scenarioPRJP1.node[21].app 	outOfOrderPk:sum(packetBytes) 	0
attr interpolationmode  none
attr source  outOfOrderPk
attr title  "packets received out of order, sum(packetBytes)"
scalar scenarioPRJP1.node[21].app 	rcvdPk:count 	152
attr interpolationmode  none
attr source  rcvdPk
attr title  "packets received, count"
scalar scenarioPRJP1.node[21].app 	rcvdPk:sum(packetBytes) 	77824
attr interpolationmode  none
attr source  rcvdPk
attr title  "packets received, sum(packetBytes)"
statistic scenarioPRJP1.node[21].app 	endToEndDelay:histogram
field count 152
field mean 0.12247615050446
field stddev 0.38871585236464
field sum 18.616374876678
field sqrsum 25.096164027058
field min 0.000945010996
field max 2.011018400556
attr interpolationmode  none
attr source  messageAge(rcvdPk)
attr title  "delay, histogram"
attr unit  s
bin	-INF	0
bin	-1.004091683784	0
bin	-0.87008679114667	0
bin	-0.73608189850933	0
bin	-0.602077005872	0
bin	-0.46807211323467	0
bin	-0.33406722059733	0
bin	-0.20006232796	0
bin	-0.066057435322667	134
bin	0.067947457314667	4
bin	0.201952349952	1
bin	0.33595724258933	0
bin	0.46996213522667	1
bin	0.603967027864	1
bin	0.73797192050133	0
bin	0.87197681313867	2
bin	1.005981705776	3
bin	1.1399865984133	0
bin	1.2739914910507	1
bin	1.407996383688	0
bin	1.5420012763253	1
bin	1.6760061689627	2
bin	1.8100110616	0
bin	1.9440159542373	2
bin	2.0780208468747	0
bin	2.212025739512	0
bin	2.3460306321493	0
bin	2.4800355247867	0
bin	2.614040417424	0
bin	2.7480453100613	0
bin	2.8820502026987	0
bin	3.016055095336	0
scalar scenarioPRJP1.node[21].app 	sentPk:count 	2623
attr interpolationmode  none
attr source  sentPk
attr title  "packets sent, count"
scalar scenarioPRJP1.node[21].app 	sentPk:sum(packetBytes) 	1342976
attr interpolationmode  none
attr source  sentPk
attr title  "packets sent, sum(packetBytes)"
scalar scenarioPRJP1.node[21].udp 	droppedPkBadChecksum:count 	0
attr interpolationmode  none
attr title  "packets dropped (checksum error), count"
scalar scenarioPRJP1.node[21].udp 	droppedPkWrongPort:count 	0
attr interpolationmode  none
attr title  "packets dropped (wrong port), count"
scalar scenarioPRJP1.node[21].udp 	passedUpPk:count 	152
attr interpolationmode  none
attr title  "packets passed up, count"
scalar scenarioPRJP1.node[21].udp 	rcvdPk:count 	152
attr interpolationmode  none
attr source  rcvdPk
attr title  "packets received, count"
scalar scenarioPRJP1.node[21].udp 	rcvdPk:sum(packetBytes) 	79040
attr interpolationmode  none
attr source  rcvdPk
attr title  "packets received, sum(packetBytes)"
scalar scenarioPRJP1.node[21].udp 	sentPk:count 	2623
attr interpolationmode  none
attr source  sentPk
attr title  "packets sent, count"
scalar scenarioPRJP1.node[21].udp 	sentPk:sum(packetBytes) 	1363960
attr interpolationmode  none
attr source  sentPk
attr title  "packets sent, sum(packetBytes)"
scalar scenarioPRJP1.node[21].networkLayer.arp 	failedARPResolution:count 	14
attr title  "ARP failed resolutions, count"
scalar scenarioPRJP1.node[21].networkLayer.arp 	completedARPResolution:count 	542
attr title  "ARP completed resolutions, count"
scalar scenarioPRJP1.node[21].networkLayer.arp 	initiatedARPResolution:count 	77
attr title  "ARP initiated resolutions, count"
scalar scenarioPRJP1.node[21].networkLayer.arp 	sentReply:count 	55
attr title  "ARP replies sent, count"
scalar scenarioPRJP1.node[21].networkLayer.arp 	sentReq:count 	119
attr title  "ARP request sent, count"
scalar scenarioPRJP1.node[21].mobility 	startTime 	2.5
scalar scenarioPRJP1.node[21].mobility 	totalTime 	947.5
scalar scenarioPRJP1.node[21].mobility 	stopTime 	950
scalar scenarioPRJP1.node[21].mobility 	minSpeed 	2.475506568125e-13
scalar scenarioPRJP1.node[21].mobility 	maxSpeed 	19.979399506491
scalar scenarioPRJP1.node[21].mobility 	totalDistance 	8969.3987821703
scalar scenarioPRJP1.node[21].mobility 	totalCO2Emission 	2584.5772104935
scalar scenarioPRJP1.node[21].wlan.mgmt 	dataQueueLen:max 	1
attr interpolationmode  sample-hold
attr title  "data queue length, max"
scalar scenarioPRJP1.node[21].wlan.mgmt 	dataQueueLen:timeavg 	0
attr interpolationmode  sample-hold
attr title  "data queue length, timeavg"
scalar scenarioPRJP1.node[21].wlan.mgmt 	dropPkByQueue:count 	0
attr interpolationmode  none
attr source  dropPkByQueue
attr title  "packets dropped by queue, count"
scalar scenarioPRJP1.node[21].wlan.mgmt 	dropPkByQueue:sum(packetBytes) 	0
attr interpolationmode  none
attr source  dropPkByQueue
attr title  "packets dropped by queue, sum(packetBytes)"
scalar scenarioPRJP1.node[21].wlan.mac 	"number of received packets" 	1389
scalar scenarioPRJP1.node[21].wlan.mac 	"number of collisions" 	6697
scalar scenarioPRJP1.node[21].wlan.mac 	"number of internal collisions" 	3
scalar scenarioPRJP1.node[21].wlan.mac 	"number of retry for AC 0" 	2119
scalar scenarioPRJP1.node[21].wlan.mac 	"number of retry for AC 1" 	64
scalar scenarioPRJP1.node[21].wlan.mac 	"number of retry for AC 2" 	0
scalar scenarioPRJP1.node[21].wlan.mac 	"number of retry for AC 3" 	0
scalar scenarioPRJP1.node[21].wlan.mac 	"sent and received bits" 	26593024
scalar scenarioPRJP1.node[21].wlan.mac 	"sent packet within AC 0" 	625
scalar scenarioPRJP1.node[21].wlan.mac 	"sent packet within AC 1" 	43
scalar scenarioPRJP1.node[21].wlan.mac 	"sent packet within AC 2" 	0
scalar scenarioPRJP1.node[21].wlan.mac 	"sent packet within AC 3" 	0
scalar scenarioPRJP1.node[21].wlan.mac 	"sent in TXOP " 	0
scalar scenarioPRJP1.node[21].wlan.mac 	"sentWithoutRetry AC 0" 	568
scalar scenarioPRJP1.node[21].wlan.mac 	"sentWithoutRetry AC 1" 	40
scalar scenarioPRJP1.node[21].wlan.mac 	"sentWithoutRetry AC 2" 	0
scalar scenarioPRJP1.node[21].wlan.mac 	"sentWithoutRetry AC 3" 	0
scalar scenarioPRJP1.node[21].wlan.mac 	"numGivenUp AC 0" 	329
scalar scenarioPRJP1.node[21].wlan.mac 	"numGivenUp AC 1" 	10
scalar scenarioPRJP1.node[21].wlan.mac 	"numGivenUp AC 2" 	0
scalar scenarioPRJP1.node[21].wlan.mac 	"numGivenUp AC 3" 	0
scalar scenarioPRJP1.node[21].wlan.mac 	"numDropped AC 0" 	0
scalar scenarioPRJP1.node[21].wlan.mac 	"numDropped AC 1" 	0
scalar scenarioPRJP1.node[21].wlan.mac 	"numDropped AC 2" 	0
scalar scenarioPRJP1.node[21].wlan.mac 	"numDropped AC 3" 	0
scalar scenarioPRJP1.node[21].wlan.mac 	rcvdPkFromLL:count 	43976
attr interpolationmode  none
attr source  packetReceivedFromLower
attr title  "packets received from lower layer, count"
scalar scenarioPRJP1.node[21].wlan.mac 	rcvdPkFromLL:sum(packetBytes) 	26096652
attr interpolationmode  none
attr source  packetReceivedFromLower
attr title  "packets received from lower layer, sum(packetBytes)"
scalar scenarioPRJP1.node[21].wlan.mac 	sentDownPk:count 	7521
attr interpolationmode  none
attr source  packetSentToLower
attr title  "packets sent to lower layer, count"
scalar scenarioPRJP1.node[21].wlan.mac 	sentDownPk:sum(packetBytes) 	4670702
attr interpolationmode  none
attr source  packetSentToLower
attr title  "packets sent to lower layer, sum(packetBytes)"
scalar scenarioPRJP1.node[21].wlan.mac 	rcvdPkFromHL:count 	3952
attr interpolationmode  none
attr source  packetReceivedFromUpper
attr title  "packets received from higher layer, count"
scalar scenarioPRJP1.node[21].wlan.mac 	rcvdPkFromHL:sum(packetBytes) 	3502840
attr interpolationmode  none
attr source  packetReceivedFromUpper
attr title  "packets received from higher layer, sum(packetBytes)"
scalar scenarioPRJP1.node[21].wlan.mac 	passedUpPk:count 	15694
attr interpolationmode  none
attr source  packetSentToUpper
attr title  "packets passed to higher layer, count"
scalar scenarioPRJP1.node[21].wlan.mac 	passedUpPk:sum(packetBytes) 	15439820
attr interpolationmode  none
attr source  packetSentToUpper
attr title  "packets passed to higher layer, sum(packetBytes)"
statistic scenarioPRJP1.node[21].wlan.radio 	radioChannel:histogram
field count 1
field mean 3
field stddev -nan
field sum 3
field sqrsum 9
field min 3
field max 3
attr interpolationmode  sample-hold
attr source  radioChannelChanged
attr title  "Radio channel, histogram"
bin	-INF	0
bin	2	0
bin	3	1
bin	4	0
scalar scenarioPRJP1.node[21].wlan.radio 	transmissionState:count 	30082
attr interpolationmode  sample-hold
attr source  transmissionStateChanged
attr title  "Radio transmission state, count"
scalar scenarioPRJP1.node[21].wlan.radio 	receptionState:count 	104088
attr interpolationmode  sample-hold
attr source  receptionStateChanged
attr title  "Radio reception state, count"
scalar scenarioPRJP1.node[21].wlan.radio 	radioMode:count 	15043
attr interpolationmode  sample-hold
attr source  radioModeChanged
attr title  "Radio mode, count"
statistic scenarioPRJP1.node[21].wlan.radio 	symbolErrorRate:histogram
field count 0
field mean -nan
field stddev -nan
field sum 0
field sqrsum 0
field min -nan
field max -nan
attr source  symbolErrorRate
attr title  "Symbol error rate, histogram"
bin	-INF	0
bin	-0.5	0
bin	-0.46666666666667	0
bin	-0.43333333333333	0
bin	-0.4	0
bin	-0.36666666666667	0
bin	-0.33333333333333	0
bin	-0.3	0
bin	-0.26666666666667	0
bin	-0.23333333333333	0
bin	-0.2	0
bin	-0.16666666666667	0
bin	-0.13333333333333	0
bin	-0.1	0
bin	-0.066666666666667	0
bin	-0.033333333333333	0
bin	-6.9388939039072e-18	0
bin	0.033333333333333	0
bin	0.066666666666667	0
bin	0.1	0
bin	0.13333333333333	0
bin	0.16666666666667	0
bin	0.2	0
bin	0.23333333333333	0
bin	0.26666666666667	0
bin	0.3	0
bin	0.33333333333333	0
bin	0.36666666666667	0
bin	0.4	0
bin	0.43333333333333	0
bin	0.46666666666667	0
bin	0.5	0
statistic scenarioPRJP1.node[21].wlan.radio 	bitErrorRate:histogram
field count 0
field mean -nan
field stddev -nan
field sum 0
field sqrsum 0
field min -nan
field max -nan
attr source  bitErrorRate
attr title  "Bit error rate, histogram"
bin	-INF	0
bin	-0.5	0
bin	-0.46666666666667	0
bin	-0.43333333333333	0
bin	-0.4	0
bin	-0.36666666666667	0
bin	-0.33333333333333	0
bin	-0.3	0
bin	-0.26666666666667	0
bin	-0.23333333333333	0
bin	-0.2	0
bin	-0.16666666666667	0
bin	-0.13333333333333	0
bin	-0.1	0
bin	-0.066666666666667	0
bin	-0.033333333333333	0
bin	-6.9388939039072e-18	0
bin	0.033333333333333	0
bin	0.066666666666667	0
bin	0.1	0
bin	0.13333333333333	0
bin	0.16666666666667	0
bin	0.2	0
bin	0.23333333333333	0
bin	0.26666666666667	0
bin	0.3	0
bin	0.33333333333333	0
bin	0.36666666666667	0
bin	0.4	0
bin	0.43333333333333	0
bin	0.46666666666667	0
bin	0.5	0
statistic scenarioPRJP1.node[21].wlan.radio 	packetErrorRate:histogram
field count 43976
field mean 0.14194244420677
field stddev 0.33973408669268
field sum 6242.0609264368
field sqrsum 5961.5748886246
field min 0
field max 1
attr source  packetErrorRate
attr title  "Packet error rate, histogram"
bin	-INF	0
bin	-0.40673395392046	0
bin	-0.3525027600644	0
bin	-0.29827156620834	0
bin	-0.24404037235228	0
bin	-0.18980917849622	0
bin	-0.13557798464015	0
bin	-0.081346790784092	0
bin	-0.027115596928031	36526
bin	0.027115596928031	451
bin	0.081346790784092	230
bin	0.13557798464015	127
bin	0.18980917849622	112
bin	0.24404037235228	84
bin	0.29827156620834	96
bin	0.3525027600644	65
bin	0.40673395392046	67
bin	0.46096514777652	72
bin	0.51519634163259	54
bin	0.56942753548865	64
bin	0.62365872934471	50
bin	0.67788992320077	86
bin	0.73212111705683	77
bin	0.78635231091289	64
bin	0.84058350476896	77
bin	0.89481469862502	113
bin	0.94904589248108	5561
bin	1.0032770863371	0
bin	1.0575082801932	0
bin	1.1117394740493	0
bin	1.1659706679053	0
bin	1.2202018617614	0
statistic scenarioPRJP1.node[21].wlan.radio 	minSNIR:histogram
field count 43976
field mean 3301.4616695746
field stddev 30457.495953381
field sum 145185078.38121
field sqrsum 41273130123786
field min 0.00054983356282468
field max 753239.71923443
attr source  minSNIR
attr title  "Min SNIR, histogram"
bin	-INF	0
bin	-15308.932846819	0
bin	-13267.471854568	0
bin	-11226.010862316	0
bin	-9184.5498700651	0
bin	-7143.0888778138	0
bin	-5101.6278855625	0
bin	-3060.1668933112	0
bin	-1018.7059010598	38150
bin	1022.7550911915	2604
bin	3064.2160834428	736
bin	5105.6770756941	404
bin	7147.1380679454	334
bin	9188.5990601967	217
bin	11230.060052448	235
bin	13271.521044699	116
bin	15312.982036951	66
bin	17354.443029202	70
bin	19395.904021453	53
bin	21437.365013705	212
bin	23478.826005956	55
bin	25520.286998207	34
bin	27561.747990459	28
bin	29603.20898271	22
bin	31644.669974961	26
bin	33686.130967213	34
bin	35727.591959464	4
bin	37769.052951715	15
bin	39810.513943967	9
bin	41851.974936218	13
bin	43893.435928469	10
bin	45934.89692072	529
scalar scenarioPRJP1.node[21].lo0.lo 	droppedPkBitError:count 	0
attr interpolationmode  none
attr source  dropPkBitError
attr title  "packets dropped/bit error, count"
scalar scenarioPRJP1.node[21].lo0.lo 	droppedPkBitError:sum(packetBytes) 	0
attr interpolationmode  none
attr source  dropPkBitError
attr title  "packets dropped/bit error, sum(packetBytes)"
scalar scenarioPRJP1.node[21].lo0.lo 	rcvdPkFromHL:count 	3
attr interpolationmode  none
attr source  packetReceivedFromUpper
attr title  "packets received from higher layer, count"
scalar scenarioPRJP1.node[21].lo0.lo 	rcvdPkFromHL:sum(packetBytes) 	168
attr interpolationmode  none
attr source  packetReceivedFromUpper
attr title  "packets received from higher layer, sum(packetBytes)"
scalar scenarioPRJP1.node[21].lo0.lo 	passedUpPk:count 	3
attr interpolationmode  none
attr source  packetSentToUpper
attr title  "packets passed to higher layer, count"
scalar scenarioPRJP1.node[21].lo0.lo 	passedUpPk:sum(packetBytes) 	168
attr interpolationmode  none
attr source  packetSentToUpper
attr title  "packets passed to higher layer, sum(packetBytes)"
scalar scenarioPRJP1.node[42].app 	"Total sent" 	2612
scalar scenarioPRJP1.node[42].app 	"Total received" 	133
scalar scenarioPRJP1.node[42].app 	"Total deleted" 	0
scalar scenarioPRJP1.node[42].app 	dropPk:count 	0
attr interpolationmode  none
attr source  dropPk
attr title  "packets dropped, count"
scalar scenarioPRJP1.node[42].app 	dropPk:sum(packetBytes) 	0
attr interpolationmode  none
attr source  dropPk
attr title  "packets dropped, sum(packetBytes)"
scalar scenarioPRJP1.node[42].app 	outOfOrderPk:count 	4
attr interpolationmode  none
attr source  outOfOrderPk
attr title  "packets received out of order, count"
scalar scenarioPRJP1.node[42].app 	outOfOrderPk:sum(packetBytes) 	2048
attr interpolationmode  none
attr source  outOfOrderPk
attr title  "packets received out of order, sum(packetBytes)"
scalar scenarioPRJP1.node[42].app 	rcvdPk:count 	133
attr interpolationmode  none
attr source  rcvdPk
attr title  "packets received, count"
scalar scenarioPRJP1.node[42].app 	rcvdPk:sum(packetBytes) 	68096
attr interpolationmode  none
attr source  rcvdPk
attr title  "packets received, sum(packetBytes)"
statistic scenarioPRJP1.node[42].app 	endToEndDelay:histogram
field count 133
field mean 0.11730852225817
field stddev 0.40492907218467
field sum 15.602033460336
field sqrsum 23.473968551499
field min 0.000945010996
field max 3.008674164265
attr interpolationmode  none
attr source  messageAge(rcvdPk)
attr title  "delay, histogram"
attr unit  s
bin	-INF	0
bin	-1.5029195656385	0
bin	-1.3024042887539	0
bin	-1.1018890118693	0
bin	-0.9013737349847	0
bin	-0.7008584581001	0
bin	-0.5003431812155	0
bin	-0.2998279043309	0
bin	-0.0993126274463	119
bin	0.1012026494383	3
bin	0.3017179263229	1
bin	0.5022332032075	1
bin	0.7027484800921	0
bin	0.9032637569767	7
bin	1.1037790338613	0
bin	1.3042943107459	0
bin	1.5048095876305	0
bin	1.7053248645151	0
bin	1.9058401413997	0
bin	2.1063554182843	0
bin	2.3068706951689	0
bin	2.5073859720535	1
bin	2.7079012489381	0
bin	2.9084165258227	1
bin	3.1089318027073	0
bin	3.3094470795919	0
bin	3.5099623564765	0
bin	3.7104776333611	0
bin	3.9109929102457	0
bin	4.1115081871303	0
bin	4.3120234640149	0
bin	4.5125387408995	0
scalar scenarioPRJP1.node[42].app 	sentPk:count 	2612
attr interpolationmode  none
attr source  sentPk
attr title  "packets sent, count"
scalar scenarioPRJP1.node[42].app 	sentPk:sum(packetBytes) 	1337344
attr interpolationmode  none
attr source  sentPk
attr title  "packets sent, sum(packetBytes)"
scalar scenarioPRJP1.node[42].udp 	droppedPkBadChecksum:count 	0
attr interpolationmode  none
attr title  "packets dropped (checksum error), count"
scalar scenarioPRJP1.node[42].udp 	droppedPkWrongPort:count 	0
attr interpolationmode  none
attr title  "packets dropped (wrong port), count"
scalar scenarioPRJP1.node[42].udp 	passedUpPk:count 	137
attr interpolationmode  none
attr title  "packets passed up, count"
scalar scenarioPRJP1.node[42].udp 	rcvdPk:count 	137
attr interpolationmode  none
attr source  rcvdPk
attr title  "packets received, count"
scalar scenarioPRJP1.node[42].udp 	rcvdPk:sum(packetBytes) 	71240
attr interpolationmode  none
attr source  rcvdPk
attr title  "packets received, sum(packetBytes)"
scalar scenarioPRJP1.node[42].udp 	sentPk:count 	2612
attr interpolationmode  none
attr source  sentPk
attr title  "packets sent, count"
scalar scenarioPRJP1.node[42].udp 	sentPk:sum(packetBytes) 	1358240
attr interpolationmode  none
attr source  sentPk
attr title  "packets sent, sum(packetBytes)"
scalar scenarioPRJP1.node[42].networkLayer.arp 	failedARPResolution:count 	16
attr title  "ARP failed resolutions, count"
scalar scenarioPRJP1.node[42].networkLayer.arp 	completedARPResolution:count 	547
attr title  "ARP completed resolutions, count"
scalar scenarioPRJP1.node[42].networkLayer.arp 	initiatedARPResolution:count 	80
attr title  "ARP initiated resolutions, count"
scalar scenarioPRJP1.node[42].networkLayer.arp 	sentReply:count 	45
attr title  "ARP replies sent, count"
scalar scenarioPRJP1.node[42].networkLayer.arp 	sentReq:count 	136
attr title  "ARP request sent, count"
scalar scenarioPRJP1.node[42].mobility 	startTime 	4.9
scalar scenarioPRJP1.node[42].mobility 	totalTime 	945.1
scalar scenarioPRJP1.node[42].mobility 	stopTime 	950
scalar scenarioPRJP1.node[42].mobility 	minSpeed 	2.4755531614973e-13
scalar scenarioPRJP1.node[42].mobility 	maxSpeed 	16.839033812439
scalar scenarioPRJP1.node[42].mobility 	totalDistance 	8854.8332362775
scalar scenarioPRJP1.node[42].mobility 	totalCO2Emission 	2376.0370521685
scalar scenarioPRJP1.node[42].wlan.mgmt 	dataQueueLen:max 	0
attr interpolationmode  sample-hold
attr title  "data queue length, max"
scalar scenarioPRJP1.node[42].wlan.mgmt 	dataQueueLen:timeavg 	0
attr interpolationmode  sample-hold
attr title  "data queue length, timeavg"
scalar scenarioPRJP1.node[42].wlan.mgmt 	dropPkByQueue:count 	0
attr interpolationmode  none
attr source  dropPkByQueue
attr title  "packets dropped by queue, count"
scalar scenarioPRJP1.node[42].wlan.mgmt 	dropPkByQueue:sum(packetBytes) 	0
attr interpolationmode  none
attr source  dropPkByQueue
attr title  "packets dropped by queue, sum(packetBytes)"
scalar scenarioPRJP1.node[42].wlan.mac 	"number of received packets" 	1513
scalar scenarioPRJP1.node[42].wlan.mac 	"number of collisions" 	5975
scalar scenarioPRJP1.node[42].wlan.mac 	"number of internal collisions" 	1
scalar scenarioPRJP1.node[42].wlan.mac 	"number of retry for AC 0" 	1974
scalar scenarioPRJP1.node[42].wlan.mac 	"number of retry for AC 1" 	6
scalar scenarioPRJP1.node[42].wlan.mac 	"number of retry for AC 2" 	0
scalar scenarioPRJP1.node[42].wlan.mac 	"number of retry for AC 3" 	0
scalar scenarioPRJP1.node[42].wlan.mac 	"sent and received bits" 	25111840
scalar scenarioPRJP1.node[42].wlan.mac 	"sent packet within AC 0" 	682
scalar scenarioPRJP1.node[42].wlan.mac 	"sent packet within AC 1" 	23
scalar scenarioPRJP1.node[42].wlan.mac 	"sent packet within AC 2" 	0
scalar scenarioPRJP1.node[42].wlan.mac 	"sent packet within AC 3" 	0
scalar scenarioPRJP1.node[42].wlan.mac 	"sent in TXOP " 	0
scalar scenarioPRJP1.node[42].wlan.mac 	"sentWithoutRetry AC 0" 	636
scalar scenarioPRJP1.node[42].wlan.mac 	"sentWithoutRetry AC 1" 	23
scalar scenarioPRJP1.node[42].wlan.mac 	"sentWithoutRetry AC 2" 	0
scalar scenarioPRJP1.node[42].wlan.mac 	"sentWithoutRetry AC 3" 	0
scalar scenarioPRJP1.node[42].wlan.mac 	"numGivenUp AC 0" 	310
scalar scenarioPRJP1.node[42].wlan.mac 	"numGivenUp AC 1" 	1
scalar scenarioPRJP1.node[42].wlan.mac 	"numGivenUp AC 2" 	0
scalar scenarioPRJP1.node[42].wlan.mac 	"numGivenUp AC 3" 	0
scalar scenarioPRJP1.node[42].wlan.mac 	"numDropped AC 0" 	0
scalar scenarioPRJP1.node[42].wlan.mac 	"numDropped AC 1" 	0
scalar scenarioPRJP1.node[42].wlan.mac 	"numDropped AC 2" 	0
scalar scenarioPRJP1.node[42].wlan.mac 	"numDropped AC 3" 	0
scalar scenarioPRJP1.node[42].wlan.mac 	rcvdPkFromLL:count 	41781
attr interpolationmode  none
attr source  packetReceivedFromLower
attr title  "packets received from lower layer, count"
scalar scenarioPRJP1.node[42].wlan.mac 	rcvdPkFromLL:sum(packetBytes) 	25118752
attr interpolationmode  none
attr source  packetReceivedFromLower
attr title  "packets received from lower layer, sum(packetBytes)"
scalar scenarioPRJP1.node[42].wlan.mac 	sentDownPk:count 	7259
attr interpolationmode  none
attr source  packetSentToLower
attr title  "packets sent to lower layer, count"
scalar scenarioPRJP1.node[42].wlan.mac 	sentDownPk:sum(packetBytes) 	4420006
attr interpolationmode  none
attr source  packetSentToLower
attr title  "packets sent to lower layer, sum(packetBytes)"
scalar scenarioPRJP1.node[42].wlan.mac 	rcvdPkFromHL:count 	3767
attr interpolationmode  none
attr source  packetReceivedFromUpper
attr title  "packets received from higher layer, count"
scalar scenarioPRJP1.node[42].wlan.mac 	rcvdPkFromHL:sum(packetBytes) 	3309952
attr interpolationmode  none
attr source  packetReceivedFromUpper
attr title  "packets received from higher layer, sum(packetBytes)"
scalar scenarioPRJP1.node[42].wlan.mac 	passedUpPk:count 	15012
attr interpolationmode  none
attr source  packetSentToUpper
attr title  "packets passed to higher layer, count"
scalar scenarioPRJP1.node[42].wlan.mac 	passedUpPk:sum(packetBytes) 	14765092
attr interpolationmode  none
attr source  packetSentToUpper
attr title  "packets passed to higher layer, sum(packetBytes)"
statistic scenarioPRJP1.node[42].wlan.radio 	radioChannel:histogram
field count 1
field mean 3
field stddev -nan
field sum 3
field sqrsum 9
field min 3
field max 3
attr interpolationmode  sample-hold
attr source  radioChannelChanged
attr title  "Radio channel, histogram"
bin	-INF	0
bin	2	0
bin	3	1
bin	4	0
scalar scenarioPRJP1.node[42].wlan.radio 	transmissionState:count 	29036
attr interpolationmode  sample-hold
attr source  transmissionStateChanged
attr title  "Radio transmission state, count"
scalar scenarioPRJP1.node[42].wlan.radio 	receptionState:count 	99133
attr interpolationmode  sample-hold
attr source  receptionStateChanged
attr title  "Radio reception state, count"
scalar scenarioPRJP1.node[42].wlan.radio 	radioMode:count 	14520
attr interpolationmode  sample-hold
attr source  radioModeChanged
attr title  "Radio mode, count"
statistic scenarioPRJP1.node[42].wlan.radio 	symbolErrorRate:histogram
field count 0
field mean -nan
field stddev -nan
field sum 0
field sqrsum 0
field min -nan
field max -nan
attr source  symbolErrorRate
attr title  "Symbol error rate, histogram"
bin	-INF	0
bin	-0.5	0
bin	-0.46666666666667	0
bin	-0.43333333333333	0
bin	-0.4	0
bin	-0.36666666666667	0
bin	-0.33333333333333	0
bin	-0.3	0
bin	-0.26666666666667	0
bin	-0.23333333333333	0
bin	-0.2	0
bin	-0.16666666666667	0
bin	-0.13333333333333	0
bin	-0.1	0
bin	-0.066666666666667	0
bin	-0.033333333333333	0
bin	-6.9388939039072e-18	0
bin	0.033333333333333	0
bin	0.066666666666667	0
bin	0.1	0
bin	0.13333333333333	0
bin	0.16666666666667	0
bin	0.2	0
bin	0.23333333333333	0
bin	0.26666666666667	0
bin	0.3	0
bin	0.33333333333333	0
bin	0.36666666666667	0
bin	0.4	0
bin	0.43333333333333	0
bin	0.46666666666667	0
bin	0.5	0
statistic scenarioPRJP1.node[42].wlan.radio 	bitErrorRate:histogram
field count 0
field mean -nan
field stddev -nan
field sum 0
field sqrsum 0
field min -nan
field max -nan
attr source  bitErrorRate
attr title  "Bit error rate, histogram"
bin	-INF	0
bin	-0.5	0
bin	-0.46666666666667	0
bin	-0.43333333333333	0
bin	-0.4	0
bin	-0.36666666666667	0
bin	-0.33333333333333	0
bin	-0.3	0
bin	-0.26666666666667	0
bin	-0.23333333333333	0
bin	-0.2	0
bin	-0.16666666666667	0
bin	-0.13333333333333	0
bin	-0.1	0
bin	-0.066666666666667	0
bin	-0.033333333333333	0
bin	-6.9388939039072e-18	0
bin	0.033333333333333	0
bin	0.066666666666667	0
bin	0.1	0
bin	0.13333333333333	0
bin	0.16666666666667	0
bin	0.2	0
bin	0.23333333333333	0
bin	0.26666666666667	0
bin	0.3	0
bin	0.33333333333333	0
bin	0.36666666666667	0
bin	0.4	0
bin	0.43333333333333	0
bin	0.46666666666667	0
bin	0.5	0
statistic scenarioPRJP1.node[42].wlan.radio 	packetErrorRate:histogram
field count 41781
field mean 0.13357648313118
field stddev 0.33195359102005
field sum 5580.959041704
field sqrsum 5349.3562170665
field min 0
field max 1
attr source  packetErrorRate
attr title  "Packet error rate, histogram"
bin	-INF	0
bin	-3.8731784945956e-07	0
bin	-3.3567546953162e-07	0
bin	-2.8403308960367e-07	0
bin	-2.3239070967573e-07	0
bin	-1.8074832974779e-07	0
bin	-1.2910594981985e-07	0
bin	-7.7463569891911e-08	0
bin	-2.582118996397e-08	31081
bin	2.582118996397e-08	293
bin	7.7463569891911e-08	112
bin	1.2910594981985e-07	85
bin	1.8074832974779e-07	59
bin	2.3239070967573e-07	45
bin	2.8403308960367e-07	48
bin	3.3567546953162e-07	36
bin	3.8731784945956e-07	32
bin	4.389602293875e-07	25
bin	4.9060260931544e-07	19
bin	5.4224498924338e-07	18
bin	5.9388736917132e-07	15
bin	6.4552974909926e-07	18
bin	6.971721290272e-07	18
bin	7.4881450895514e-07	20
bin	8.0045688888308e-07	21
bin	8.5209926881102e-07	20
bin	9.0374164873896e-07	10
bin	9.5538402866691e-07	13
bin	1.0070264085948e-06	8
bin	1.0586687885228e-06	15
bin	1.1103111684507e-06	20
bin	1.1619535483787e-06	9750
statistic scenarioPRJP1.node[42].wlan.radio 	minSNIR:histogram
field count 41781
field mean 3594.4508347937
field stddev 31311.636097703
field sum 150179750.32852
field sqrsum 41501700961641
field min 0.00070967569024674
field max 753239.71923443
attr source  minSNIR
attr title  "Min SNIR, histogram"
bin	-INF	0
bin	-22900.318810106	0
bin	-19846.344625498	0
bin	-16792.370440889	0
bin	-13738.39625628	0
bin	-10684.422071672	0
bin	-7630.4478870629	0
bin	-4576.4737024542	0
bin	-1522.4995178455	36376
bin	1531.4746667632	2408
bin	4585.448851372	664
bin	7639.4230359807	336
bin	10693.397220589	324
bin	13747.371405198	158
bin	16801.345589807	212
bin	19855.319774415	214
bin	22909.293959024	107
bin	25963.268143633	49
bin	29017.242328242	42
bin	32071.21651285	46
bin	35125.190697459	34
bin	38179.164882068	48
bin	41233.139066676	84
bin	44287.113251285	146
bin	47341.087435894	59
bin	50395.061620503	54
bin	53449.035805111	13
bin	56503.00998972	24
bin	59556.984174329	9
bin	62610.958358937	15
bin	65664.932543546	6
bin	68718.906728155	353
scalar scenarioPRJP1.node[42].lo0.lo 	droppedPkBitError:count 	0
attr interpolationmode  none
attr source  dropPkBitError
attr title  "packets dropped/bit error, count"
scalar scenarioPRJP1.node[42].lo0.lo 	droppedPkBitError:sum(packetBytes) 	0
attr interpolationmode  none
attr source  dropPkBitError
attr title  "packets dropped/bit error, sum(packetBytes)"
scalar scenarioPRJP1.node[42].lo0.lo 	rcvdPkFromHL:count 	2
attr interpolationmode  none
attr source  packetReceivedFromUpper
attr title  "packets received from higher layer, count"
scalar scenarioPRJP1.node[42].lo0.lo 	rcvdPkFromHL:sum(packetBytes) 	112
attr interpolationmode  none
attr source  packetReceivedFromUpper
attr title  "packets received from higher layer, sum(packetBytes)"
scalar scenarioPRJP1.node[42].lo0.lo 	passedUpPk:count 	2
attr interpolationmode  none
attr source  packetSentToUpper
attr title  "packets passed to higher layer, count"
scalar scenarioPRJP1.node[42].lo0.lo 	passedUpPk:sum(packetBytes) 	112
attr interpolationmode  none
attr source  packetSentToUpper
attr title  "packets passed to higher layer, sum(packetBytes)"
scalar scenarioPRJP1.node[62].app 	"Total sent" 	2605
scalar scenarioPRJP1.node[62].app 	"Total received" 	137
scalar scenarioPRJP1.node[62].app 	"Total deleted" 	0
scalar scenarioPRJP1.node[62].app 	dropPk:count 	0
attr interpolationmode  none
attr source  dropPk
attr title  "packets dropped, count"
scalar scenarioPRJP1.node[62].app 	dropPk:sum(packetBytes) 	0
attr interpolationmode  none
attr source  dropPk
attr title  "packets dropped, sum(packetBytes)"
scalar scenarioPRJP1.node[62].app 	outOfOrderPk:count 	0
attr interpolationmode  none
attr source  outOfOrderPk
attr title  "packets received out of order, count"
scalar scenarioPRJP1.node[62].app 	outOfOrderPk:sum(packetBytes) 	0
attr interpolationmode  none
attr source  outOfOrderPk
attr title  "packets received out of order, sum(packetBytes)"
scalar scenarioPRJP1.node[62].app 	rcvdPk:count 	137
attr interpolationmode  none
attr source  rcvdPk
attr title  "packets received, count"
scalar scenarioPRJP1.node[62].app 	rcvdPk:sum(packetBytes) 	70144
attr interpolationmode  none
attr source  rcvdPk
attr title  "packets received, sum(packetBytes)"
statistic scenarioPRJP1.node[62].app 	endToEndDelay:histogram
field count 137
field mean 0.11026982498192
field stddev 0.38255087476696
field sum 15.106966022523
field sqrsum 21.568785862066
field min 0.000945071337
field max 2.010968839064
attr interpolationmode  none
attr source  messageAge(rcvdPk)
attr title  "delay, histogram"
attr unit  s
bin	-INF	0
bin	-1.0040668125265	0
bin	-0.87006522801137	0
bin	-0.73606364349623	0
bin	-0.6020620589811	0
bin	-0.46806047446597	0
bin	-0.33405888995083	0
bin	-0.2000573054357	0
bin	-0.066055720920566	125
bin	0.067945863594567	1
bin	0.2019474481097	0
bin	0.33594903262483	0
bin	0.46995061713997	2
bin	0.6039522016551	0
bin	0.73795378617023	1
bin	0.87195537068537	1
bin	1.0059569552005	3
bin	1.1399585397156	0
bin	1.2739601242308	0
bin	1.4079617087459	0
bin	1.541963293261	0
bin	1.6759648777762	0
bin	1.8099664622913	0
bin	1.9439680468064	4
bin	2.0779696313216	0
bin	2.2119712158367	0
bin	2.3459728003518	0
bin	2.479974384867	0
bin	2.6139759693821	0
bin	2.7479775538972	0
bin	2.8819791384124	0
bin	3.0159807229275	0
scalar scenarioPRJP1.node[62].app 	sentPk:count 	2605
attr interpolationmode  none
attr source  sentPk
attr title  "packets sent, count"
scalar scenarioPRJP1.node[62].app 	sentPk:sum(packetBytes) 	1333760
attr interpolationmode  none
attr source  sentPk
attr title  "packets sent, sum(packetBytes)"
scalar scenarioPRJP1.node[62].udp 	droppedPkBadChecksum:count 	0
attr interpolationmode  none
attr title  "packets dropped (checksum error), count"
scalar scenarioPRJP1.node[62].udp 	droppedPkWrongPort:count 	0
attr interpolationmode  none
attr title  "packets dropped (wrong port), count"
scalar scenarioPRJP1.node[62].udp 	passedUpPk:count 	137
attr interpolationmode  none
attr title  "packets passed up, count"
scalar scenarioPRJP1.node[62].udp 	rcvdPk:count 	137
attr interpolationmode  none
attr source  rcvdPk
attr title  "packets received, count"
scalar scenarioPRJP1.node[62].udp 	rcvdPk:sum(packetBytes) 	71240
attr interpolationmode  none
attr source  rcvdPk
attr title  "packets received, sum(packetBytes)"
scalar scenarioPRJP1.node[62].udp 	sentPk:count 	2605
attr interpolationmode  none
attr source  sentPk
attr title  "packets sent, count"
scalar scenarioPRJP1.node[62].udp 	sentPk:sum(packetBytes) 	1354600
attr interpolationmode  none
attr source  sentPk
attr title  "packets sent, sum(packetBytes)"
scalar scenarioPRJP1.node[62].networkLayer.arp 	failedARPResolution:count 	15
attr title  "ARP failed resolutions, count"
scalar scenarioPRJP1.node[62].networkLayer.arp 	completedARPResolution:count 	410
attr title  "ARP completed resolutions, count"
scalar scenarioPRJP1.node[62].networkLayer.arp 	initiatedARPResolution:count 	68
attr title  "ARP initiated resolutions, count"
scalar scenarioPRJP1.node[62].networkLayer.arp 	sentReply:count 	52
attr title  "ARP replies sent, count"
scalar scenarioPRJP1.node[62].networkLayer.arp 	sentReq:count 	114
attr title  "ARP request sent, count"
scalar scenarioPRJP1.node[62].mobility 	startTime 	7.3
scalar scenarioPRJP1.node[62].mobility 	totalTime 	942.7
scalar scenarioPRJP1.node[62].mobility 	stopTime 	950
scalar scenarioPRJP1.node[62].mobility 	minSpeed 	2.4755147686565e-13
scalar scenarioPRJP1.node[62].mobility 	maxSpeed 	15.633437504909
scalar scenarioPRJP1.node[62].mobility 	totalDistance 	9341.7063549869
scalar scenarioPRJP1.node[62].mobility 	totalCO2Emission 	2317.3089801272
scalar scenarioPRJP1.node[62].wlan.mgmt 	dataQueueLen:max 	0
attr interpolationmode  sample-hold
attr title  "data queue length, max"
scalar scenarioPRJP1.node[62].wlan.mgmt 	dataQueueLen:timeavg 	0
attr interpolationmode  sample-hold
attr title  "data queue length, timeavg"
scalar scenarioPRJP1.node[62].wlan.mgmt 	dropPkByQueue:count 	0
attr interpolationmode  none
attr source  dropPkByQueue
attr title  "packets dropped by queue, count"
scalar scenarioPRJP1.node[62].wlan.mgmt 	dropPkByQueue:sum(packetBytes) 	0
attr interpolationmode  none
attr source  dropPkByQueue
attr title  "packets dropped by queue, sum(packetBytes)"
scalar scenarioPRJP1.node[62].wlan.mac 	"number of received packets" 	1233
scalar scenarioPRJP1.node[62].wlan.mac 	"number of collisions" 	5282
scalar scenarioPRJP1.node[62].wlan.mac 	"number of internal collisions" 	1
scalar scenarioPRJP1.node[62].wlan.mac 	"number of retry for AC 0" 	1870
scalar scenarioPRJP1.node[62].wlan.mac 	"number of retry for AC 1" 	18
scalar scenarioPRJP1.node[62].wlan.mac 	"number of retry for AC 2" 	0
scalar scenarioPRJP1.node[62].wlan.mac 	"number of retry for AC 3" 	0
scalar scenarioPRJP1.node[62].wlan.mac 	"sent and received bits" 	24401216
scalar scenarioPRJP1.node[62].wlan.mac 	"sent packet within AC 0" 	661
scalar scenarioPRJP1.node[62].wlan.mac 	"sent packet within AC 1" 	19
scalar scenarioPRJP1.node[62].wlan.mac 	"sent packet within AC 2" 	0
scalar scenarioPRJP1.node[62].wlan.mac 	"sent packet within AC 3" 	0
scalar scenarioPRJP1.node[62].wlan.mac 	"sent in TXOP " 	0
scalar scenarioPRJP1.node[62].wlan.mac 	"sentWithoutRetry AC 0" 	606
scalar scenarioPRJP1.node[62].wlan.mac 	"sentWithoutRetry AC 1" 	19
scalar scenarioPRJP1.node[62].wlan.mac 	"sentWithoutRetry AC 2" 	0
scalar scenarioPRJP1.node[62].wlan.mac 	"sentWithoutRetry AC 3" 	0
scalar scenarioPRJP1.node[62].wlan.mac 	"numGivenUp AC 0" 	289
scalar scenarioPRJP1.node[62].wlan.mac 	"numGivenUp AC 1" 	3
scalar scenarioPRJP1.node[62].wlan.mac 	"numGivenUp AC 2" 	0
scalar scenarioPRJP1.node[62].wlan.mac 	"numGivenUp AC 3" 	0
scalar scenarioPRJP1.node[62].wlan.mac 	"numDropped AC 0" 	0
scalar scenarioPRJP1.node[62].wlan.mac 	"numDropped AC 1" 	0
scalar scenarioPRJP1.node[62].wlan.mac 	"numDropped AC 2" 	0
scalar scenarioPRJP1.node[62].wlan.mac 	"numDropped AC 3" 	0
scalar scenarioPRJP1.node[62].wlan.mac 	rcvdPkFromLL:count 	33247
attr interpolationmode  none
attr source  packetReceivedFromLower
attr title  "packets received from lower layer, count"
scalar scenarioPRJP1.node[62].wlan.mac 	rcvdPkFromLL:sum(packetBytes) 	21038212
attr interpolationmode  none
attr source  packetReceivedFromLower
attr title  "packets received from lower layer, sum(packetBytes)"
scalar scenarioPRJP1.node[62].wlan.mac 	sentDownPk:count 	6732
attr interpolationmode  none
attr source  packetSentToLower
attr title  "packets sent to lower layer, count"
scalar scenarioPRJP1.node[62].wlan.mac 	sentDownPk:sum(packetBytes) 	4220706
attr interpolationmode  none
attr source  packetSentToLower
attr title  "packets sent to lower layer, sum(packetBytes)"
scalar scenarioPRJP1.node[62].wlan.mac 	rcvdPkFromHL:count 	3612
attr interpolationmode  none
attr source  packetReceivedFromUpper
attr title  "packets received from higher layer, count"
scalar scenarioPRJP1.node[62].wlan.mac 	rcvdPkFromHL:sum(packetBytes) 	3204092
attr interpolationmode  none
attr source  packetReceivedFromUpper
attr title  "packets received from higher layer, sum(packetBytes)"
scalar scenarioPRJP1.node[62].wlan.mac 	passedUpPk:count 	13240
attr interpolationmode  none
attr source  packetSentToUpper
attr title  "packets passed to higher layer, count"
scalar scenarioPRJP1.node[62].wlan.mac 	passedUpPk:sum(packetBytes) 	13104092
attr interpolationmode  none
attr source  packetSentToUpper
attr title  "packets passed to higher layer, sum(packetBytes)"
statistic scenarioPRJP1.node[62].wlan.radio 	radioChannel:histogram
field count 1
field mean 3
field stddev -nan
field sum 3
field sqrsum 9
field min 3
field max 3
attr interpolationmode  sample-hold
attr source  radioChannelChanged
attr title  "Radio channel, histogram"
bin	-INF	0
bin	2	0
bin	3	1
bin	4	0
scalar scenarioPRJP1.node[62].wlan.radio 	transmissionState:count 	26928
attr interpolationmode  sample-hold
attr source  transmissionStateChanged
attr title  "Radio transmission state, count"
scalar scenarioPRJP1.node[62].wlan.radio 	receptionState:count 	80763
attr interpolationmode  sample-hold
attr source  receptionStateChanged
attr title  "Radio reception state, count"
scalar scenarioPRJP1.node[62].wlan.radio 	radioMode:count 	13466
attr interpolationmode  sample-hold
attr source  radioModeChanged
attr title  "Radio mode, count"
statistic scenarioPRJP1.node[62].wlan.radio 	symbolErrorRate:histogram
field count 0
field mean -nan
field stddev -nan
field sum 0
field sqrsum 0
field min -nan
field max -nan
attr source  symbolErrorRate
attr title  "Symbol error rate, histogram"
bin	-INF	0
bin	-0.5	0
bin	-0.46666666666667	0
bin	-0.43333333333333	0
bin	-0.4	0
bin	-0.36666666666667	0
bin	-0.33333333333333	0
bin	-0.3	0
bin	-0.26666666666667	0
bin	-0.23333333333333	0
bin	-0.2	0
bin	-0.16666666666667	0
bin	-0.13333333333333	0
bin	-0.1	0
bin	-0.066666666666667	0
bin	-0.033333333333333	0
bin	-6.9388939039072e-18	0
bin	0.033333333333333	0
bin	0.066666666666667	0
bin	0.1	0
bin	0.13333333333333	0
bin	0.16666666666667	0
bin	0.2	0
bin	0.23333333333333	0
bin	0.26666666666667	0
bin	0.3	0
bin	0.33333333333333	0
bin	0.36666666666667	0
bin	0.4	0
bin	0.43333333333333	0
bin	0.46666666666667	0
bin	0.5	0
statistic scenarioPRJP1.node[62].wlan.radio 	bitErrorRate:histogram
field count 0
field mean -nan
field stddev -nan
field sum 0
field sqrsum 0
field min -nan
field max -nan
attr source  bitErrorRate
attr title  "Bit error rate, histogram"
bin	-INF	0
bin	-0.5	0
bin	-0.46666666666667	0
bin	-0.43333333333333	0
bin	-0.4	0
bin	-0.36666666666667	0
bin	-0.33333333333333	0
bin	-0.3	0
bin	-0.26666666666667	0
bin	-0.23333333333333	0
bin	-0.2	0
bin	-0.16666666666667	0
bin	-0.13333333333333	0
bin	-0.1	0
bin	-0.066666666666667	0
bin	-0.033333333333333	0
bin	-6.9388939039072e-18	0
bin	0.033333333333333	0
bin	0.066666666666667	0
bin	0.1	0
bin	0.13333333333333	0
bin	0.16666666666667	0
bin	0.2	0
bin	0.23333333333333	0
bin	0.26666666666667	0
bin	0.3	0
bin	0.33333333333333	0
bin	0.36666666666667	0
bin	0.4	0
bin	0.43333333333333	0
bin	0.46666666666667	0
bin	0.5	0
statistic scenarioPRJP1.node[62].wlan.radio 	packetErrorRate:histogram
field count 33247
field mean 0.1474554504905
field stddev 0.34508289136147
field sum 4902.4513624575
field sqrsum 4681.9000588717
field min 0
field max 1
attr source  packetErrorRate
attr title  "Packet error rate, histogram"
bin	-INF	0
bin	-0.20731821592674	0
bin	-0.17967578713651	0
bin	-0.15203335834628	0
bin	-0.12439092955605	0
bin	-0.096748500765814	0
bin	-0.069106071975582	0
bin	-0.041463643185349	0
bin	-0.013821214395116	27198
bin	0.013821214395116	341
bin	0.041463643185349	157
bin	0.069106071975582	101
bin	0.096748500765814	75
bin	0.12439092955605	74
bin	0.15203335834628	65
bin	0.17967578713651	44
bin	0.20731821592674	54
bin	0.23496064471698	32
bin	0.26260307350721	41
bin	0.29024550229744	41
bin	0.31788793108768	30
bin	0.34553035987791	25
bin	0.37317278866814	27
bin	0.40081521745837	29
bin	0.42845764624861	36
bin	0.45610007503884	24
bin	0.48374250382907	29
bin	0.5113849326193	32
bin	0.53902736140954	22
bin	0.56666979019977	31
bin	0.59431221899	26
bin	0.62195464778023	4713
statistic scenarioPRJP1.node[62].wlan.radio 	minSNIR:histogram
field count 33247
field mean 4259.1544337861
field stddev 40965.186667095
field sum 141604107.46009
field sqrsum 56394772921833
field min 0.0008849315183617
field max 753239.71923443
attr source  minSNIR
attr title  "Min SNIR, histogram"
bin	-INF	0
bin	-15038.058661863	0
bin	-13032.692601799	0
bin	-11027.326541734	0
bin	-9021.96048167	0
bin	-7016.5944216056	0
bin	-5011.2283615412	0
bin	-3005.8623014768	0
bin	-1000.4962414124	28932
bin	1004.869818652	1719
bin	3010.2358787164	605
bin	5015.6019387808	281
bin	7020.9679988452	229
bin	9026.3340589096	137
bin	11031.700118974	170
bin	13037.066179038	88
bin	15042.432239103	78
bin	17047.798299167	69
bin	19053.164359232	81
bin	21058.530419296	80
bin	23063.89647936	70
bin	25069.262539425	38
bin	27074.628599489	41
bin	29079.994659554	37
bin	31085.360719618	23
bin	33090.726779682	9
bin	35096.092839747	25
bin	37101.458899811	24
bin	39106.824959876	11
bin	41112.19101994	10
bin	43117.557080004	5
bin	45122.923140069	485
scalar scenarioPRJP1.node[62].lo0.lo 	droppedPkBitError:count 	0
attr interpolationmode  none
attr source  dropPkBitError
attr title  "packets dropped/bit error, count"
scalar scenarioPRJP1.node[62].lo0.lo 	droppedPkBitError:sum(packetBytes) 	0
attr interpolationmode  none
attr source  dropPkBitError
attr title  "packets dropped/bit error, sum(packetBytes)"
scalar scenarioPRJP1.node[62].lo0.lo 	rcvdPkFromHL:count 	7
attr interpolationmode  none
attr source  packetReceivedFromUpper
attr title  "packets received from higher layer, count"
scalar scenarioPRJP1.node[62].lo0.lo 	rcvdPkFromHL:sum(packetBytes) 	392
attr interpolationmode  none
attr source  packetReceivedFromUpper
attr title  "packets received from higher layer, sum(packetBytes)"
scalar scenarioPRJP1.node[62].lo0.lo 	passedUpPk:count 	7
attr interpolationmode  none
attr source  packetSentToUpper
attr title  "packets passed to higher layer, count"
scalar scenarioPRJP1.node[62].lo0.lo 	passedUpPk:sum(packetBytes) 	392
attr interpolationmode  none
attr source  packetSentToUpper
attr title  "packets passed to higher layer, sum(packetBytes)"
scalar scenarioPRJP1.node[82].app 	"Total sent" 	2611
scalar scenarioPRJP1.node[82].app 	"Total received" 	172
scalar scenarioPRJP1.node[82].app 	"Total deleted" 	0
scalar scenarioPRJP1.node[82].app 	dropPk:count 	0
attr interpolationmode  none
attr source  dropPk
attr title  "packets dropped, count"
scalar scenarioPRJP1.node[82].app 	dropPk:sum(packetBytes) 	0
attr interpolationmode  none
attr source  dropPk
attr title  "packets dropped, sum(packetBytes)"
scalar scenarioPRJP1.node[82].app 	outOfOrderPk:count 	0
attr interpolationmode  none
attr source  outOfOrderPk
attr title  "packets received out of order, count"
scalar scenarioPRJP1.node[82].app 	outOfOrderPk:sum(packetBytes) 	0
attr interpolationmode  none
attr source  outOfOrderPk
attr title  "packets received out of order, sum(packetBytes)"
scalar scenarioPRJP1.node[82].app 	rcvdPk:count 	172
attr interpolationmode  none
attr source  rcvdPk
attr title  "packets received, count"
scalar scenarioPRJP1.node[82].app 	rcvdPk:sum(packetBytes) 	88064
attr interpolationmode  none
attr source  rcvdPk
attr title  "packets received, sum(packetBytes)"
statistic scenarioPRJP1.node[82].app 	endToEndDelay:histogram
field count 172
field mean 0.12687381536859
field stddev 0.43003304940988
field sum 21.822296243398
field sqrsum 34.391438417497
field min 0.000945039862
field max 2.504878669844
attr interpolationmode  none
attr source  messageAge(rcvdPk)
attr title  "delay, histogram"
attr unit  s
bin	-INF	0
bin	-1.2510215865055	0
bin	-1.0840926862233	0
bin	-0.9171637859411	0
bin	-0.7502348856589	0
bin	-0.5833059853767	0
bin	-0.4163770850945	0
bin	-0.2494481848123	0
bin	-0.0825192845301	157
bin	0.0844096157521	2
bin	0.2513385160343	0
bin	0.4182674163165	0
bin	0.5851963165987	0
bin	0.7521252168809	1
bin	0.9190541171631	5
bin	1.0859830174453	0
bin	1.2529119177275	1
bin	1.4198408180097	0
bin	1.5867697182919	0
bin	1.7536986185741	0
bin	1.9206275188563	5
bin	2.0875564191385	0
bin	2.2544853194207	0
bin	2.4214142197029	1
bin	2.5883431199851	0
bin	2.7552720202673	0
bin	2.9222009205495	0
bin	3.0891298208317	0
bin	3.2560587211139	0
bin	3.4229876213961	0
bin	3.5899165216783	0
bin	3.7568454219605	0
scalar scenarioPRJP1.node[82].app 	sentPk:count 	2611
attr interpolationmode  none
attr source  sentPk
attr title  "packets sent, count"
scalar scenarioPRJP1.node[82].app 	sentPk:sum(packetBytes) 	1336832
attr interpolationmode  none
attr source  sentPk
attr title  "packets sent, sum(packetBytes)"
scalar scenarioPRJP1.node[82].udp 	droppedPkBadChecksum:count 	0
attr interpolationmode  none
attr title  "packets dropped (checksum error), count"
scalar scenarioPRJP1.node[82].udp 	droppedPkWrongPort:count 	0
attr interpolationmode  none
attr title  "packets dropped (wrong port), count"
scalar scenarioPRJP1.node[82].udp 	passedUpPk:count 	172
attr interpolationmode  none
attr title  "packets passed up, count"
scalar scenarioPRJP1.node[82].udp 	rcvdPk:count 	172
attr interpolationmode  none
attr source  rcvdPk
attr title  "packets received, count"
scalar scenarioPRJP1.node[82].udp 	rcvdPk:sum(packetBytes) 	89440
attr interpolationmode  none
attr source  rcvdPk
attr title  "packets received, sum(packetBytes)"
scalar scenarioPRJP1.node[82].udp 	sentPk:count 	2611
attr interpolationmode  none
attr source  sentPk
attr title  "packets sent, count"
scalar scenarioPRJP1.node[82].udp 	sentPk:sum(packetBytes) 	1357720
attr interpolationmode  none
attr source  sentPk
attr title  "packets sent, sum(packetBytes)"
scalar scenarioPRJP1.node[82].networkLayer.arp 	failedARPResolution:count 	10
attr title  "ARP failed resolutions, count"
scalar scenarioPRJP1.node[82].networkLayer.arp 	completedARPResolution:count 	624
attr title  "ARP completed resolutions, count"
scalar scenarioPRJP1.node[82].networkLayer.arp 	initiatedARPResolution:count 	86
attr title  "ARP initiated resolutions, count"
scalar scenarioPRJP1.node[82].networkLayer.arp 	sentReply:count 	52
attr title  "ARP replies sent, count"
scalar scenarioPRJP1.node[82].networkLayer.arp 	sentReq:count 	130
attr title  "ARP request sent, count"
scalar scenarioPRJP1.node[82].mobility 	startTime 	9.7
scalar scenarioPRJP1.node[82].mobility 	totalTime 	940.3
scalar scenarioPRJP1.node[82].mobility 	stopTime 	950
scalar scenarioPRJP1.node[82].mobility 	minSpeed 	2.4755022446286e-13
scalar scenarioPRJP1.node[82].mobility 	maxSpeed 	17.495058466018
scalar scenarioPRJP1.node[82].mobility 	totalDistance 	8469.4965898948
scalar scenarioPRJP1.node[82].mobility 	totalCO2Emission 	2382.2835965133
scalar scenarioPRJP1.node[82].wlan.mgmt 	dataQueueLen:max 	0
attr interpolationmode  sample-hold
attr title  "data queue length, max"
scalar scenarioPRJP1.node[82].wlan.mgmt 	dataQueueLen:timeavg 	0
attr interpolationmode  sample-hold
attr title  "data queue length, timeavg"
scalar scenarioPRJP1.node[82].wlan.mgmt 	dropPkByQueue:count 	0
attr interpolationmode  none
attr source  dropPkByQueue
attr title  "packets dropped by queue, count"
scalar scenarioPRJP1.node[82].wlan.mgmt 	dropPkByQueue:sum(packetBytes) 	0
attr interpolationmode  none
attr source  dropPkByQueue
attr title  "packets dropped by queue, sum(packetBytes)"
scalar scenarioPRJP1.node[82].wlan.mac 	"number of received packets" 	2234
scalar scenarioPRJP1.node[82].wlan.mac 	"number of collisions" 	8895
scalar scenarioPRJP1.node[82].wlan.mac 	"number of internal collisions" 	2
scalar scenarioPRJP1.node[82].wlan.mac 	"number of retry for AC 0" 	2754
scalar scenarioPRJP1.node[82].wlan.mac 	"number of retry for AC 1" 	21
scalar scenarioPRJP1.node[82].wlan.mac 	"number of retry for AC 2" 	0
scalar scenarioPRJP1.node[82].wlan.mac 	"number of retry for AC 3" 	0
scalar scenarioPRJP1.node[82].wlan.mac 	"sent and received bits" 	31515840
scalar scenarioPRJP1.node[82].wlan.mac 	"sent packet within AC 0" 	1257
scalar scenarioPRJP1.node[82].wlan.mac 	"sent packet within AC 1" 	85
scalar scenarioPRJP1.node[82].wlan.mac 	"sent packet within AC 2" 	0
scalar scenarioPRJP1.node[82].wlan.mac 	"sent packet within AC 3" 	0
scalar scenarioPRJP1.node[82].wlan.mac 	"sent in TXOP " 	0
scalar scenarioPRJP1.node[82].wlan.mac 	"sentWithoutRetry AC 0" 	1180
scalar scenarioPRJP1.node[82].wlan.mac 	"sentWithoutRetry AC 1" 	82
scalar scenarioPRJP1.node[82].wlan.mac 	"sentWithoutRetry AC 2" 	0
scalar scenarioPRJP1.node[82].wlan.mac 	"sentWithoutRetry AC 3" 	0
scalar scenarioPRJP1.node[82].wlan.mac 	"numGivenUp AC 0" 	430
scalar scenarioPRJP1.node[82].wlan.mac 	"numGivenUp AC 1" 	3
scalar scenarioPRJP1.node[82].wlan.mac 	"numGivenUp AC 2" 	0
scalar scenarioPRJP1.node[82].wlan.mac 	"numGivenUp AC 3" 	0
scalar scenarioPRJP1.node[82].wlan.mac 	"numDropped AC 0" 	0
scalar scenarioPRJP1.node[82].wlan.mac 	"numDropped AC 1" 	0
scalar scenarioPRJP1.node[82].wlan.mac 	"numDropped AC 2" 	0
scalar scenarioPRJP1.node[82].wlan.mac 	"numDropped AC 3" 	0
scalar scenarioPRJP1.node[82].wlan.mac 	rcvdPkFromLL:count 	65483
attr interpolationmode  none
attr source  packetReceivedFromLower
attr title  "packets received from lower layer, count"
scalar scenarioPRJP1.node[82].wlan.mac 	rcvdPkFromLL:sum(packetBytes) 	36442570
attr interpolationmode  none
attr source  packetReceivedFromLower
attr title  "packets received from lower layer, sum(packetBytes)"
scalar scenarioPRJP1.node[82].wlan.mac 	sentDownPk:count 	9965
attr interpolationmode  none
attr source  packetSentToLower
attr title  "packets sent to lower layer, count"
scalar scenarioPRJP1.node[82].wlan.mac 	sentDownPk:sum(packetBytes) 	5697764
attr interpolationmode  none
attr source  packetSentToLower
attr title  "packets sent to lower layer, sum(packetBytes)"
scalar scenarioPRJP1.node[82].wlan.mac 	rcvdPkFromHL:count 	4958
attr interpolationmode  none
attr source  packetReceivedFromUpper
attr title  "packets received from higher layer, count"
scalar scenarioPRJP1.node[82].wlan.mac 	rcvdPkFromHL:sum(packetBytes) 	4172588
attr interpolationmode  none
attr source  packetReceivedFromUpper
attr title  "packets received from higher layer, sum(packetBytes)"
scalar scenarioPRJP1.node[82].wlan.mac 	passedUpPk:count 	20098
attr interpolationmode  none
attr source  packetSentToUpper
attr title  "packets passed to higher layer, count"
scalar scenarioPRJP1.node[82].wlan.mac 	passedUpPk:sum(packetBytes) 	19654544
attr interpolationmode  none
attr source  packetSentToUpper
attr title  "packets passed to higher layer, sum(packetBytes)"
statistic scenarioPRJP1.node[82].wlan.radio 	radioChannel:histogram
field count 1
field mean 3
field stddev -nan
field sum 3
field sqrsum 9
field min 3
field max 3
attr interpolationmode  sample-hold
attr source  radioChannelChanged
attr title  "Radio channel, histogram"
bin	-INF	0
bin	2	0
bin	3	1
bin	4	0
scalar scenarioPRJP1.node[82].wlan.radio 	transmissionState:count 	39860
attr interpolationmode  sample-hold
attr source  transmissionStateChanged
attr title  "Radio transmission state, count"
scalar scenarioPRJP1.node[82].wlan.radio 	receptionState:count 	152594
attr interpolationmode  sample-hold
attr source  receptionStateChanged
attr title  "Radio reception state, count"
scalar scenarioPRJP1.node[82].wlan.radio 	radioMode:count 	19932
attr interpolationmode  sample-hold
attr source  radioModeChanged
attr title  "Radio mode, count"
statistic scenarioPRJP1.node[82].wlan.radio 	symbolErrorRate:histogram
field count 0
field mean -nan
field stddev -nan
field sum 0
field sqrsum 0
field min -nan
field max -nan
attr source  symbolErrorRate
attr title  "Symbol error rate, histogram"
bin	-INF	0
bin	-0.5	0
bin	-0.46666666666667	0
bin	-0.43333333333333	0
bin	-0.4	0
bin	-0.36666666666667	0
bin	-0.33333333333333	0
bin	-0.3	0
bin	-0.26666666666667	0
bin	-0.23333333333333	0
bin	-0.2	0
bin	-0.16666666666667	0
bin	-0.13333333333333	0
bin	-0.1	0
bin	-0.066666666666667	0
bin	-0.033333333333333	0
bin	-6.9388939039072e-18	0
bin	0.033333333333333	0
bin	0.066666666666667	0
bin	0.1	0
bin	0.13333333333333	0
bin	0.16666666666667	0
bin	0.2	0
bin	0.23333333333333	0
bin	0.26666666666667	0
bin	0.3	0
bin	0.33333333333333	0
bin	0.36666666666667	0
bin	0.4	0
bin	0.43333333333333	0
bin	0.46666666666667	0
bin	0.5	0
statistic scenarioPRJP1.node[82].wlan.radio 	bitErrorRate:histogram
field count 0
field mean -nan
field stddev -nan
field sum 0
field sqrsum 0
field min -nan
field max -nan
attr source  bitErrorRate
attr title  "Bit error rate, histogram"
bin	-INF	0
bin	-0.5	0
bin	-0.46666666666667	0
bin	-0.43333333333333	0
bin	-0.4	0
bin	-0.36666666666667	0
bin	-0.33333333333333	0
bin	-0.3	0
bin	-0.26666666666667	0
bin	-0.23333333333333	0
bin	-0.2	0
bin	-0.16666666666667	0
bin	-0.13333333333333	0
bin	-0.1	0
bin	-0.066666666666667	0
bin	-0.033333333333333	0
bin	-6.9388939039072e-18	0
bin	0.033333333333333	0
bin	0.066666666666667	0
bin	0.1	0
bin	0.13333333333333	0
bin	0.16666666666667	0
bin	0.2	0
bin	0.23333333333333	0
bin	0.26666666666667	0
bin	0.3	0
bin	0.33333333333333	0
bin	0.36666666666667	0
bin	0.4	0
bin	0.43333333333333	0
bin	0.46666666666667	0
bin	0.5	0
statistic scenarioPRJP1.node[82].wlan.radio 	packetErrorRate:histogram
field count 65483
field mean 0.1263551073715
field stddev 0.32388360317917
field sum 8274.1114960082
field sqrsum 7914.5765766356
field min 0
field max 1
attr source  packetErrorRate
attr title  "Packet error rate, histogram"
bin	-INF	0
bin	-0.0046880962720384	0
bin	-0.0040630167691	0
bin	-0.0034379372661615	0
bin	-0.0028128577632231	0
bin	-0.0021877782602846	0
bin	-0.0015626987573461	0
bin	-0.00093761925440768	0
bin	-0.00031253975146923	53240
bin	0.00031253975146923	506
bin	0.00093761925440768	230
bin	0.0015626987573461	173
bin	0.0021877782602846	150
bin	0.0028128577632231	107
bin	0.0034379372661615	77
bin	0.0040630167691	84
bin	0.0046880962720384	69
bin	0.0053131757749769	67
bin	0.0059382552779153	59
bin	0.0065633347808538	53
bin	0.0071884142837922	54
bin	0.0078134937867307	40
bin	0.0084385732896692	51
bin	0.0090636527926076	29
bin	0.0096887322955461	32
bin	0.010313811798485	34
bin	0.010938891301423	40
bin	0.011563970804361	33
bin	0.0121890503073	25
bin	0.012814129810238	29
bin	0.013439209313177	23
bin	0.014064288816115	10278
statistic scenarioPRJP1.node[82].wlan.radio 	minSNIR:histogram
field count 65483
field mean 5427.0660430482
field stddev 46103.790779489
field sum 355380565.69692
field sqrsum 1.4111456256666e+14
field min 0.00050370659171424
field max 904002.47132004
attr source  minSNIR
attr title  "Min SNIR, histogram"
bin	-INF	0
bin	-6531.5907772088	0
bin	-5660.3347762012	0
bin	-4789.0787751936	0
bin	-3917.822774186	0
bin	-3046.5667731783	0
bin	-2175.3107721707	0
bin	-1304.0547711631	0
bin	-432.79877015546	50763
bin	438.45723085216	5362
bin	1309.7132318598	1969
bin	2180.9692328674	1236
bin	3052.225233875	720
bin	3923.4812348827	450
bin	4794.7372358903	345
bin	5665.9932368979	319
bin	6537.2492379055	187
bin	7408.5052389131	178
bin	8279.7612399208	142
bin	9151.0172409284	168
bin	10022.273241936	117
bin	10893.529242944	151
bin	11764.785243951	90
bin	12636.041244959	143
bin	13507.297245967	137
bin	14378.553246974	78
bin	15249.809247982	84
bin	16121.065248989	77
bin	16992.321249997	54
bin	17863.577251005	97
bin	18734.833252012	175
bin	19606.08925302	2441
scalar scenarioPRJP1.node[82].lo0.lo 	droppedPkBitError:count 	0
attr interpolationmode  none
attr source  dropPkBitError
attr title  "packets dropped/bit error, count"
scalar scenarioPRJP1.node[82].lo0.lo 	droppedPkBitError:sum(packetBytes) 	0
attr interpolationmode  none
attr source  dropPkBitError
attr title  "packets dropped/bit error, sum(packetBytes)"
scalar scenarioPRJP1.node[82].lo0.lo 	rcvdPkFromHL:count 	11
attr interpolationmode  none
attr source  packetReceivedFromUpper
attr title  "packets received from higher layer, count"
scalar scenarioPRJP1.node[82].lo0.lo 	rcvdPkFromHL:sum(packetBytes) 	616
attr interpolationmode  none
attr source  packetReceivedFromUpper
attr title  "packets received from higher layer, sum(packetBytes)"
scalar scenarioPRJP1.node[82].lo0.lo 	passedUpPk:count 	11
attr interpolationmode  none
attr source  packetSentToUpper
attr title  "packets passed to higher layer, count"
scalar scenarioPRJP1.node[82].lo0.lo 	passedUpPk:sum(packetBytes) 	616
attr interpolationmode  none
attr source  packetSentToUpper
attr title  "packets passed to higher layer, sum(packetBytes)"
scalar scenarioPRJP1.node[1].app 	"Total sent" 	2605
scalar scenarioPRJP1.node[1].app 	"Total received" 	170
scalar scenarioPRJP1.node[1].app 	"Total deleted" 	0
scalar scenarioPRJP1.node[1].app 	dropPk:count 	0
attr interpolationmode  none
attr source  dropPk
attr title  "packets dropped, count"
scalar scenarioPRJP1.node[1].app 	dropPk:sum(packetBytes) 	0
attr interpolationmode  none
attr source  dropPk
attr title  "packets dropped, sum(packetBytes)"
scalar scenarioPRJP1.node[1].app 	outOfOrderPk:count 	2
attr interpolationmode  none
attr source  outOfOrderPk
attr title  "packets received out of order, count"
scalar scenarioPRJP1.node[1].app 	outOfOrderPk:sum(packetBytes) 	1024
attr interpolationmode  none
attr source  outOfOrderPk
attr title  "packets received out of order, sum(packetBytes)"
scalar scenarioPRJP1.node[1].app 	rcvdPk:count 	170
attr interpolationmode  none
attr source  rcvdPk
attr title  "packets received, count"
scalar scenarioPRJP1.node[1].app 	rcvdPk:sum(packetBytes) 	87040
attr interpolationmode  none
attr source  rcvdPk
attr title  "packets received, sum(packetBytes)"
statistic scenarioPRJP1.node[1].app 	endToEndDelay:histogram
field count 170
field mean 0.12283017650559
field stddev 0.3789594871257
field sum 20.88113000595
field sqrsum 26.834972381422
field min 0.000945022674
field max 2.62336791995
attr interpolationmode  none
attr source  messageAge(rcvdPk)
attr title  "delay, histogram"
attr unit  s
bin	-INF	0
bin	-1.310266425964	0
bin	-1.1354382328123	0
bin	-0.96061003966053	0
bin	-0.7857818465088	0
bin	-0.61095365335707	0
bin	-0.43612546020533	0
bin	-0.2612972670536	0
bin	-0.086469073901867	151
bin	0.088359119249867	1
bin	0.2631873124016	2
bin	0.43801550555333	3
bin	0.61284369870507	1
bin	0.7876718918568	0
bin	0.96250008500853	8
bin	1.1373282781603	0
bin	1.312156471312	1
bin	1.4869846644637	0
bin	1.6618128576155	0
bin	1.8366410507672	1
bin	2.0114692439189	1
bin	2.1862974370707	0
bin	2.3611256302224	0
bin	2.5359538233741	1
bin	2.7107820165259	0
bin	2.8856102096776	0
bin	3.0604384028293	0
bin	3.2352665959811	0
bin	3.4100947891328	0
bin	3.5849229822845	0
bin	3.7597511754363	0
bin	3.934579368588	0
scalar scenarioPRJP1.node[1].app 	sentPk:count 	2605
attr interpolationmode  none
attr source  sentPk
attr title  "packets sent, count"
scalar scenarioPRJP1.node[1].app 	sentPk:sum(packetBytes) 	1333760
attr interpolationmode  none
attr source  sentPk
attr title  "packets sent, sum(packetBytes)"
scalar scenarioPRJP1.node[1].udp 	droppedPkBadChecksum:count 	0
attr interpolationmode  none
attr title  "packets dropped (checksum error), count"
scalar scenarioPRJP1.node[1].udp 	droppedPkWrongPort:count 	0
attr interpolationmode  none
attr title  "packets dropped (wrong port), count"
scalar scenarioPRJP1.node[1].udp 	passedUpPk:count 	172
attr interpolationmode  none
attr title  "packets passed up, count"
scalar scenarioPRJP1.node[1].udp 	rcvdPk:count 	172
attr interpolationmode  none
attr source  rcvdPk
attr title  "packets received, count"
scalar scenarioPRJP1.node[1].udp 	rcvdPk:sum(packetBytes) 	89440
attr interpolationmode  none
attr source  rcvdPk
attr title  "packets received, sum(packetBytes)"
scalar scenarioPRJP1.node[1].udp 	sentPk:count 	2605
attr interpolationmode  none
attr source  sentPk
attr title  "packets sent, count"
scalar scenarioPRJP1.node[1].udp 	sentPk:sum(packetBytes) 	1354600
attr interpolationmode  none
attr source  sentPk
attr title  "packets sent, sum(packetBytes)"
scalar scenarioPRJP1.node[1].networkLayer.arp 	failedARPResolution:count 	16
attr title  "ARP failed resolutions, count"
scalar scenarioPRJP1.node[1].networkLayer.arp 	completedARPResolution:count 	616
attr title  "ARP completed resolutions, count"
scalar scenarioPRJP1.node[1].networkLayer.arp 	initiatedARPResolution:count 	86
attr title  "ARP initiated resolutions, count"
scalar scenarioPRJP1.node[1].networkLayer.arp 	sentReply:count 	58
attr title  "ARP replies sent, count"
scalar scenarioPRJP1.node[1].networkLayer.arp 	sentReq:count 	136
attr title  "ARP request sent, count"
scalar scenarioPRJP1.node[1].mobility 	startTime 	0.1
scalar scenarioPRJP1.node[1].mobility 	totalTime 	949.9
scalar scenarioPRJP1.node[1].mobility 	stopTime 	950
scalar scenarioPRJP1.node[1].mobility 	minSpeed 	2.4754611734758e-13
scalar scenarioPRJP1.node[1].mobility 	maxSpeed 	19.121356832379
scalar scenarioPRJP1.node[1].mobility 	totalDistance 	10361.694252322
scalar scenarioPRJP1.node[1].mobility 	totalCO2Emission 	2859.9927158662
scalar scenarioPRJP1.node[1].wlan.mgmt 	dataQueueLen:max 	1
attr interpolationmode  sample-hold
attr title  "data queue length, max"
scalar scenarioPRJP1.node[1].wlan.mgmt 	dataQueueLen:timeavg 	0
attr interpolationmode  sample-hold
attr title  "data queue length, timeavg"
scalar scenarioPRJP1.node[1].wlan.mgmt 	dropPkByQueue:count 	0
attr interpolationmode  none
attr source  dropPkByQueue
attr title  "packets dropped by queue, count"
scalar scenarioPRJP1.node[1].wlan.mgmt 	dropPkByQueue:sum(packetBytes) 	0
attr interpolationmode  none
attr source  dropPkByQueue
attr title  "packets dropped by queue, sum(packetBytes)"
scalar scenarioPRJP1.node[1].wlan.mac 	"number of received packets" 	1580
scalar scenarioPRJP1.node[1].wlan.mac 	"number of collisions" 	7852
scalar scenarioPRJP1.node[1].wlan.mac 	"number of internal collisions" 	0
scalar scenarioPRJP1.node[1].wlan.mac 	"number of retry for AC 0" 	2505
scalar scenarioPRJP1.node[1].wlan.mac 	"number of retry for AC 1" 	67
scalar scenarioPRJP1.node[1].wlan.mac 	"number of retry for AC 2" 	0
scalar scenarioPRJP1.node[1].wlan.mac 	"number of retry for AC 3" 	0
scalar scenarioPRJP1.node[1].wlan.mac 	"sent and received bits" 	27268640
scalar scenarioPRJP1.node[1].wlan.mac 	"sent packet within AC 0" 	660
scalar scenarioPRJP1.node[1].wlan.mac 	"sent packet within AC 1" 	46
scalar scenarioPRJP1.node[1].wlan.mac 	"sent packet within AC 2" 	0
scalar scenarioPRJP1.node[1].wlan.mac 	"sent packet within AC 3" 	0
scalar scenarioPRJP1.node[1].wlan.mac 	"sent in TXOP " 	0
scalar scenarioPRJP1.node[1].wlan.mac 	"sentWithoutRetry AC 0" 	611
scalar scenarioPRJP1.node[1].wlan.mac 	"sentWithoutRetry AC 1" 	45
scalar scenarioPRJP1.node[1].wlan.mac 	"sentWithoutRetry AC 2" 	0
scalar scenarioPRJP1.node[1].wlan.mac 	"sentWithoutRetry AC 3" 	0
scalar scenarioPRJP1.node[1].wlan.mac 	"numGivenUp AC 0" 	395
scalar scenarioPRJP1.node[1].wlan.mac 	"numGivenUp AC 1" 	11
scalar scenarioPRJP1.node[1].wlan.mac 	"numGivenUp AC 2" 	0
scalar scenarioPRJP1.node[1].wlan.mac 	"numGivenUp AC 3" 	0
scalar scenarioPRJP1.node[1].wlan.mac 	"numDropped AC 0" 	0
scalar scenarioPRJP1.node[1].wlan.mac 	"numDropped AC 1" 	0
scalar scenarioPRJP1.node[1].wlan.mac 	"numDropped AC 2" 	0
scalar scenarioPRJP1.node[1].wlan.mac 	"numDropped AC 3" 	0
scalar scenarioPRJP1.node[1].wlan.mac 	rcvdPkFromLL:count 	53233
attr interpolationmode  none
attr source  packetReceivedFromLower
attr title  "packets received from lower layer, count"
scalar scenarioPRJP1.node[1].wlan.mac 	rcvdPkFromLL:sum(packetBytes) 	30441606
attr interpolationmode  none
attr source  packetReceivedFromLower
attr title  "packets received from lower layer, sum(packetBytes)"
scalar scenarioPRJP1.node[1].wlan.mac 	sentDownPk:count 	8298
attr interpolationmode  none
attr source  packetSentToLower
attr title  "packets sent to lower layer, count"
scalar scenarioPRJP1.node[1].wlan.mac 	sentDownPk:sum(packetBytes) 	5024308
attr interpolationmode  none
attr source  packetSentToLower
attr title  "packets sent to lower layer, sum(packetBytes)"
scalar scenarioPRJP1.node[1].wlan.mac 	rcvdPkFromHL:count 	4146
attr interpolationmode  none
attr source  packetReceivedFromUpper
attr title  "packets received from higher layer, count"
scalar scenarioPRJP1.node[1].wlan.mac 	rcvdPkFromHL:sum(packetBytes) 	3625848
attr interpolationmode  none
attr source  packetReceivedFromUpper
attr title  "packets received from higher layer, sum(packetBytes)"
[...]
scalar scenarioPRJP1.node[79].wlan.mac 	passedUpPk:sum(packetBytes) 	12872740
attr interpolationmode  none
attr source  packetSentToUpper
attr title  "packets passed to higher layer, sum(packetBytes)"
statistic scenarioPRJP1.node[79].wlan.radio 	radioChannel:histogram
field count 1
field mean 3
field stddev -nan
field sum 3
field sqrsum 9
field min 3
field max 3
attr interpolationmode  sample-hold
attr source  radioChannelChanged
attr title  "Radio channel, histogram"
bin	-INF	0
bin	2	0
bin	3	1
bin	4	0
scalar scenarioPRJP1.node[79].wlan.radio 	transmissionState:count 	24452
attr interpolationmode  sample-hold
attr source  transmissionStateChanged
attr title  "Radio transmission state, count"
scalar scenarioPRJP1.node[79].wlan.radio 	receptionState:count 	85108
attr interpolationmode  sample-hold
attr source  receptionStateChanged
attr title  "Radio reception state, count"
scalar scenarioPRJP1.node[79].wlan.radio 	radioMode:count 	12228
attr interpolationmode  sample-hold
attr source  radioModeChanged
attr title  "Radio mode, count"
statistic scenarioPRJP1.node[79].wlan.radio 	symbolErrorRate:histogram
field count 0
field mean -nan
field stddev -nan
field sum 0
field sqrsum 0
field min -nan
field max -nan
attr source  symbolErrorRate
attr title  "Symbol error rate, histogram"
bin	-INF	0
bin	-0.5	0
bin	-0.46666666666667	0
bin	-0.43333333333333	0
bin	-0.4	0
bin	-0.36666666666667	0
bin	-0.33333333333333	0
bin	-0.3	0
bin	-0.26666666666667	0
bin	-0.23333333333333	0
bin	-0.2	0
bin	-0.16666666666667	0
bin	-0.13333333333333	0
bin	-0.1	0
bin	-0.066666666666667	0
bin	-0.033333333333333	0
bin	-6.9388939039072e-18	0
bin	0.033333333333333	0
bin	0.066666666666667	0
bin	0.1	0
bin	0.13333333333333	0
bin	0.16666666666667	0
bin	0.2	0
bin	0.23333333333333	0
bin	0.26666666666667	0
bin	0.3	0
bin	0.33333333333333	0
bin	0.36666666666667	0
bin	0.4	0
bin	0.43333333333333	0
bin	0.46666666666667	0
bin	0.5	0
statistic scenarioPRJP1.node[79].wlan.radio 	bitErrorRate:histogram
field count 0
field mean -nan
field stddev -nan
field sum 0
field sqrsum 0
field min -nan
field max -nan
attr source  bitErrorRate
attr title  "Bit error rate, histogram"
bin	-INF	0
bin	-0.5	0
bin	-0.46666666666667	0
bin	-0.43333333333333	0
bin	-0.4	0
bin	-0.36666666666667	0
bin	-0.33333333333333	0
bin	-0.3	0
bin	-0.26666666666667	0
bin	-0.23333333333333	0
bin	-0.2	0
bin	-0.16666666666667	0
bin	-0.13333333333333	0
bin	-0.1	0
bin	-0.066666666666667	0
bin	-0.033333333333333	0
bin	-6.9388939039072e-18	0
bin	0.033333333333333	0
bin	0.066666666666667	0
bin	0.1	0
bin	0.13333333333333	0
bin	0.16666666666667	0
bin	0.2	0
bin	0.23333333333333	0
bin	0.26666666666667	0
bin	0.3	0
bin	0.33333333333333	0
bin	0.36666666666667	0
bin	0.4	0
bin	0.43333333333333	0
bin	0.46666666666667	0
bin	0.5	0
statistic scenarioPRJP1.node[79].wlan.radio 	packetErrorRate:histogram
field count 36054
field mean 0.13692974506891
field stddev 0.33425554638151
field sum 4936.8650287144
field sqrsum 4704.0889189715
field min 0
field max 1
attr source  packetErrorRate
attr title  "Packet error rate, histogram"
bin	-INF	0
bin	-0.38176153142012	0
bin	-0.33085999389744	0
bin	-0.27995845637476	0
bin	-0.22905691885207	0
bin	-0.17815538132939	0
bin	-0.12725384380671	0
bin	-0.076352306284024	0
bin	-0.025450768761341	30087
bin	0.025450768761341	378
bin	0.076352306284024	182
bin	0.12725384380671	117
bin	0.17815538132939	95
bin	0.22905691885207	76
bin	0.27995845637476	54
bin	0.33085999389744	53
bin	0.38176153142012	62
bin	0.4326630689428	67
bin	0.48356460646549	61
bin	0.53446614398817	41
bin	0.58536768151085	52
bin	0.63626921903353	50
bin	0.68717075655622	39
bin	0.7380722940789	42
bin	0.78897383160158	65
bin	0.83987536912427	61
bin	0.89077690664695	90
bin	0.94167844416963	157
bin	0.99257998169231	4225
bin	1.043481519215	0
bin	1.0943830567377	0
bin	1.1452845942604	0
statistic scenarioPRJP1.node[79].wlan.radio 	minSNIR:histogram
field count 36054
field mean 4170.1690465272
field stddev 40914.460273032
field sum 150351274.80349
field sqrsum 60979462004049
field min 0.00056823655315178
field max 753239.71923443
attr source  minSNIR
attr title  "Min SNIR, histogram"
bin	-INF	0
bin	-18092.194026329	0
bin	-15679.628755895	0
bin	-13267.06348546	0
bin	-10854.498215025	0
bin	-8441.9329445904	0
bin	-6029.3676741556	0
bin	-3616.8024037209	0
bin	-1204.2371332861	31562
bin	1208.3281371486	1895
bin	3620.8934075834	669
bin	6033.4586780181	308
bin	8446.0239484529	196
bin	10858.589218888	181
bin	13271.154489322	164
bin	15683.719759757	101
bin	18096.285030192	76
bin	20508.850300627	62
bin	22921.415571061	124
bin	25333.980841496	35
bin	27746.546111931	30
bin	30159.111382366	32
bin	32571.6766528	30
bin	34984.241923235	29
bin	37396.80719367	33
bin	39809.372464105	24
bin	42221.937734539	19
bin	44634.503004974	9
bin	47047.068275409	23
bin	49459.633545844	14
bin	51872.198816278	23
bin	54284.764086713	415
scalar scenarioPRJP1.node[79].lo0.lo 	droppedPkBitError:count 	0
attr interpolationmode  none
attr source  dropPkBitError
attr title  "packets dropped/bit error, count"
scalar scenarioPRJP1.node[79].lo0.lo 	droppedPkBitError:sum(packetBytes) 	0
attr interpolationmode  none
attr source  dropPkBitError
attr title  "packets dropped/bit error, sum(packetBytes)"
scalar scenarioPRJP1.node[79].lo0.lo 	rcvdPkFromHL:count 	6
attr interpolationmode  none
attr source  packetReceivedFromUpper
attr title  "packets received from higher layer, count"
scalar scenarioPRJP1.node[79].lo0.lo 	rcvdPkFromHL:sum(packetBytes) 	336
attr interpolationmode  none
attr source  packetReceivedFromUpper
attr title  "packets received from higher layer, sum(packetBytes)"
scalar scenarioPRJP1.node[79].lo0.lo 	passedUpPk:count 	6
attr interpolationmode  none
attr source  packetSentToUpper
attr title  "packets passed to higher layer, count"
scalar scenarioPRJP1.node[79].lo0.lo 	passedUpPk:sum(packetBytes) 	336
attr interpolationmode  none
attr source  packetSentToUpper
attr title  "packets passed to higher layer, sum(packetBytes)"
scalar scenarioPRJP1.node[98].app 	"Total sent" 	2619
scalar scenarioPRJP1.node[98].app 	"Total received" 	173
scalar scenarioPRJP1.node[98].app 	"Total deleted" 	0
scalar scenarioPRJP1.node[98].app 	dropPk:count 	0
attr interpolationmode  none
attr source  dropPk
attr title  "packets dropped, count"
scalar scenarioPRJP1.node[98].app 	dropPk:sum(packetBytes) 	0
attr interpolationmode  none
attr source  dropPk
attr title  "packets dropped, sum(packetBytes)"
scalar scenarioPRJP1.node[98].app 	outOfOrderPk:count 	0
attr interpolationmode  none
attr source  outOfOrderPk
attr title  "packets received out of order, count"
scalar scenarioPRJP1.node[98].app 	outOfOrderPk:sum(packetBytes) 	0
attr interpolationmode  none
attr source  outOfOrderPk
attr title  "packets received out of order, sum(packetBytes)"
scalar scenarioPRJP1.node[98].app 	rcvdPk:count 	173
attr interpolationmode  none
attr source  rcvdPk
attr title  "packets received, count"
scalar scenarioPRJP1.node[98].app 	rcvdPk:sum(packetBytes) 	88576
attr interpolationmode  none
attr source  rcvdPk
attr title  "packets received, sum(packetBytes)"
statistic scenarioPRJP1.node[98].app 	endToEndDelay:histogram
field count 173
field mean 0.11663031630574
field stddev 0.33066167553889
field sum 20.177044720893
field sqrsum 21.159243819185
field min 0.000945010996
field max 2.044678436054
attr interpolationmode  none
attr source  messageAge(rcvdPk)
attr title  "delay, histogram"
attr unit  s
bin	-INF	0
bin	-1.020921680104	0
bin	-0.88467278605253	0
bin	-0.74842389200107	0
bin	-0.6121749979496	0
bin	-0.47592610389813	0
bin	-0.33967720984667	0
bin	-0.2034283157952	0
bin	-0.067179421743733	152
bin	0.069069472307733	2
bin	0.2053183663592	0
bin	0.34156726041067	1
bin	0.47781615446213	4
bin	0.6140650485136	0
bin	0.75031394256507	3
bin	0.88656283661653	5
bin	1.022811730668	4
bin	1.1590606247195	0
bin	1.2953095187709	0
bin	1.4315584128224	0
bin	1.5678073068739	0
bin	1.7040562009253	0
bin	1.8403050949768	0
bin	1.9765539890283	2
bin	2.1128028830797	0
bin	2.2490517771312	0
bin	2.3853006711827	0
bin	2.5215495652341	0
bin	2.6577984592856	0
bin	2.7940473533371	0
bin	2.9302962473885	0
bin	3.06654514144	0
scalar scenarioPRJP1.node[98].app 	sentPk:count 	2619
attr interpolationmode  none
attr source  sentPk
attr title  "packets sent, count"
scalar scenarioPRJP1.node[98].app 	sentPk:sum(packetBytes) 	1340928
attr interpolationmode  none
attr source  sentPk
attr title  "packets sent, sum(packetBytes)"
scalar scenarioPRJP1.node[98].udp 	droppedPkBadChecksum:count 	0
attr interpolationmode  none
attr title  "packets dropped (checksum error), count"
scalar scenarioPRJP1.node[98].udp 	droppedPkWrongPort:count 	0
attr interpolationmode  none
attr title  "packets dropped (wrong port), count"
scalar scenarioPRJP1.node[98].udp 	passedUpPk:count 	173
attr interpolationmode  none
attr title  "packets passed up, count"
scalar scenarioPRJP1.node[98].udp 	rcvdPk:count 	173
attr interpolationmode  none
attr source  rcvdPk
attr title  "packets received, count"
scalar scenarioPRJP1.node[98].udp 	rcvdPk:sum(packetBytes) 	89960
attr interpolationmode  none
attr source  rcvdPk
attr title  "packets received, sum(packetBytes)"
scalar scenarioPRJP1.node[98].udp 	sentPk:count 	2619
attr interpolationmode  none
attr source  sentPk
attr title  "packets sent, count"
scalar scenarioPRJP1.node[98].udp 	sentPk:sum(packetBytes) 	1361880
attr interpolationmode  none
attr source  sentPk
attr title  "packets sent, sum(packetBytes)"
scalar scenarioPRJP1.node[98].networkLayer.arp 	failedARPResolution:count 	6
attr title  "ARP failed resolutions, count"
scalar scenarioPRJP1.node[98].networkLayer.arp 	completedARPResolution:count 	720
attr title  "ARP completed resolutions, count"
scalar scenarioPRJP1.node[98].networkLayer.arp 	initiatedARPResolution:count 	80
attr title  "ARP initiated resolutions, count"
scalar scenarioPRJP1.node[98].networkLayer.arp 	sentReply:count 	63
attr title  "ARP replies sent, count"
scalar scenarioPRJP1.node[98].networkLayer.arp 	sentReq:count 	122
attr title  "ARP request sent, count"
scalar scenarioPRJP1.node[98].mobility 	startTime 	9.9
scalar scenarioPRJP1.node[98].mobility 	totalTime 	940.1
scalar scenarioPRJP1.node[98].mobility 	stopTime 	950
scalar scenarioPRJP1.node[98].mobility 	minSpeed 	2.4755060850502e-13
scalar scenarioPRJP1.node[98].mobility 	maxSpeed 	16.72549145178
scalar scenarioPRJP1.node[98].mobility 	totalDistance 	8539.4185820482
scalar scenarioPRJP1.node[98].mobility 	totalCO2Emission 	2304.0114977884
scalar scenarioPRJP1.node[98].wlan.mgmt 	dataQueueLen:max 	0
attr interpolationmode  sample-hold
attr title  "data queue length, max"
scalar scenarioPRJP1.node[98].wlan.mgmt 	dataQueueLen:timeavg 	0
attr interpolationmode  sample-hold
attr title  "data queue length, timeavg"
scalar scenarioPRJP1.node[98].wlan.mgmt 	dropPkByQueue:count 	0
attr interpolationmode  none
attr source  dropPkByQueue
attr title  "packets dropped by queue, count"
scalar scenarioPRJP1.node[98].wlan.mgmt 	dropPkByQueue:sum(packetBytes) 	0
attr interpolationmode  none
attr source  dropPkByQueue
attr title  "packets dropped by queue, sum(packetBytes)"
scalar scenarioPRJP1.node[98].wlan.mac 	"number of received packets" 	2286
scalar scenarioPRJP1.node[98].wlan.mac 	"number of collisions" 	11170
scalar scenarioPRJP1.node[98].wlan.mac 	"number of internal collisions" 	1
scalar scenarioPRJP1.node[98].wlan.mac 	"number of retry for AC 0" 	3123
scalar scenarioPRJP1.node[98].wlan.mac 	"number of retry for AC 1" 	86
scalar scenarioPRJP1.node[98].wlan.mac 	"number of retry for AC 2" 	0
scalar scenarioPRJP1.node[98].wlan.mac 	"number of retry for AC 3" 	0
scalar scenarioPRJP1.node[98].wlan.mac 	"sent and received bits" 	29866400
scalar scenarioPRJP1.node[98].wlan.mac 	"sent packet within AC 0" 	1220
scalar scenarioPRJP1.node[98].wlan.mac 	"sent packet within AC 1" 	31
scalar scenarioPRJP1.node[98].wlan.mac 	"sent packet within AC 2" 	0
scalar scenarioPRJP1.node[98].wlan.mac 	"sent packet within AC 3" 	0
scalar scenarioPRJP1.node[98].wlan.mac 	"sent in TXOP " 	0
scalar scenarioPRJP1.node[98].wlan.mac 	"sentWithoutRetry AC 0" 	1143
scalar scenarioPRJP1.node[98].wlan.mac 	"sentWithoutRetry AC 1" 	29
scalar scenarioPRJP1.node[98].wlan.mac 	"sentWithoutRetry AC 2" 	0
scalar scenarioPRJP1.node[98].wlan.mac 	"sentWithoutRetry AC 3" 	0
scalar scenarioPRJP1.node[98].wlan.mac 	"numGivenUp AC 0" 	492
scalar scenarioPRJP1.node[98].wlan.mac 	"numGivenUp AC 1" 	14
scalar scenarioPRJP1.node[98].wlan.mac 	"numGivenUp AC 2" 	0
scalar scenarioPRJP1.node[98].wlan.mac 	"numGivenUp AC 3" 	0
scalar scenarioPRJP1.node[98].wlan.mac 	"numDropped AC 0" 	0
scalar scenarioPRJP1.node[98].wlan.mac 	"numDropped AC 1" 	0
scalar scenarioPRJP1.node[98].wlan.mac 	"numDropped AC 2" 	0
scalar scenarioPRJP1.node[98].wlan.mac 	"numDropped AC 3" 	0
scalar scenarioPRJP1.node[98].wlan.mac 	rcvdPkFromLL:count 	72745
attr interpolationmode  none
attr source  packetReceivedFromLower
attr title  "packets received from lower layer, count"
scalar scenarioPRJP1.node[98].wlan.mac 	rcvdPkFromLL:sum(packetBytes) 	40536996
attr interpolationmode  none
attr source  packetReceivedFromLower
attr title  "packets received from lower layer, sum(packetBytes)"
scalar scenarioPRJP1.node[98].wlan.mac 	sentDownPk:count 	10256
attr interpolationmode  none
attr source  packetSentToLower
attr title  "packets sent to lower layer, count"
scalar scenarioPRJP1.node[98].wlan.mac 	sentDownPk:sum(packetBytes) 	5740456
attr interpolationmode  none
attr source  packetSentToLower
attr title  "packets sent to lower layer, sum(packetBytes)"
scalar scenarioPRJP1.node[98].wlan.mac 	rcvdPkFromHL:count 	4762
attr interpolationmode  none
attr source  packetReceivedFromUpper
attr title  "packets received from higher layer, count"
scalar scenarioPRJP1.node[98].wlan.mac 	rcvdPkFromHL:sum(packetBytes) 	4002108
attr interpolationmode  none
attr source  packetReceivedFromUpper
attr title  "packets received from higher layer, sum(packetBytes)"
scalar scenarioPRJP1.node[98].wlan.mac 	passedUpPk:count 	21524
attr interpolationmode  none
attr source  packetSentToUpper
attr title  "packets passed to higher layer, count"
scalar scenarioPRJP1.node[98].wlan.mac 	passedUpPk:sum(packetBytes) 	21100232
attr interpolationmode  none
attr source  packetSentToUpper
attr title  "packets passed to higher layer, sum(packetBytes)"
statistic scenarioPRJP1.node[98].wlan.radio 	radioChannel:histogram
field count 1
field mean 3
field stddev -nan
field sum 3
field sqrsum 9
field min 3
field max 3
attr interpolationmode  sample-hold
attr source  radioChannelChanged
attr title  "Radio channel, histogram"
bin	-INF	0
bin	2	0
bin	3	1
bin	4	0
scalar scenarioPRJP1.node[98].wlan.radio 	transmissionState:count 	41024
attr interpolationmode  sample-hold
attr source  transmissionStateChanged
attr title  "Radio transmission state, count"
scalar scenarioPRJP1.node[98].wlan.radio 	receptionState:count 	168084
attr interpolationmode  sample-hold
attr source  receptionStateChanged
attr title  "Radio reception state, count"
scalar scenarioPRJP1.node[98].wlan.radio 	radioMode:count 	20514
attr interpolationmode  sample-hold
attr source  radioModeChanged
attr title  "Radio mode, count"
statistic scenarioPRJP1.node[98].wlan.radio 	symbolErrorRate:histogram
field count 0
field mean -nan
field stddev -nan
field sum 0
field sqrsum 0
field min -nan
field max -nan
attr source  symbolErrorRate
attr title  "Symbol error rate, histogram"
bin	-INF	0
bin	-0.5	0
bin	-0.46666666666667	0
bin	-0.43333333333333	0
bin	-0.4	0
bin	-0.36666666666667	0
bin	-0.33333333333333	0
bin	-0.3	0
bin	-0.26666666666667	0
bin	-0.23333333333333	0
bin	-0.2	0
bin	-0.16666666666667	0
bin	-0.13333333333333	0
bin	-0.1	0
bin	-0.066666666666667	0
bin	-0.033333333333333	0
bin	-6.9388939039072e-18	0
bin	0.033333333333333	0
bin	0.066666666666667	0
bin	0.1	0
bin	0.13333333333333	0
bin	0.16666666666667	0
bin	0.2	0
bin	0.23333333333333	0
bin	0.26666666666667	0
bin	0.3	0
bin	0.33333333333333	0
bin	0.36666666666667	0
bin	0.4	0
bin	0.43333333333333	0
bin	0.46666666666667	0
bin	0.5	0
statistic scenarioPRJP1.node[98].wlan.radio 	bitErrorRate:histogram
field count 0
field mean -nan
field stddev -nan
field sum 0
field sqrsum 0
field min -nan
field max -nan
attr source  bitErrorRate
attr title  "Bit error rate, histogram"
bin	-INF	0
bin	-0.5	0
bin	-0.46666666666667	0
bin	-0.43333333333333	0
bin	-0.4	0
bin	-0.36666666666667	0
bin	-0.33333333333333	0
bin	-0.3	0
bin	-0.26666666666667	0
bin	-0.23333333333333	0
bin	-0.2	0
bin	-0.16666666666667	0
bin	-0.13333333333333	0
bin	-0.1	0
bin	-0.066666666666667	0
bin	-0.033333333333333	0
bin	-6.9388939039072e-18	0
bin	0.033333333333333	0
bin	0.066666666666667	0
bin	0.1	0
bin	0.13333333333333	0
bin	0.16666666666667	0
bin	0.2	0
bin	0.23333333333333	0
bin	0.26666666666667	0
bin	0.3	0
bin	0.33333333333333	0
bin	0.36666666666667	0
bin	0.4	0
bin	0.43333333333333	0
bin	0.46666666666667	0
bin	0.5	0
statistic scenarioPRJP1.node[98].wlan.radio 	packetErrorRate:histogram
field count 72745
field mean 0.143876286217
field stddev 0.34271383575927
field sum 10466.280440856
field sqrsum 10049.834095512
field min 0
field max 1
attr source  packetErrorRate
attr title  "Packet error rate, histogram"
bin	-INF	0
bin	-0.5	0
bin	-0.43333333333333	0
bin	-0.36666666666667	0
bin	-0.3	0
bin	-0.23333333333333	0
bin	-0.16666666666667	0
bin	-0.1	0
bin	-0.033333333333333	60560
bin	0.033333333333333	702
bin	0.1	355
bin	0.16666666666667	233
bin	0.23333333333333	166
bin	0.3	156
bin	0.36666666666667	119
bin	0.43333333333333	127
bin	0.5	94
bin	0.56666666666667	106
bin	0.63333333333333	120
bin	0.7	112
bin	0.76666666666667	118
bin	0.83333333333333	152
bin	0.9	226
bin	0.96666666666667	9399
bin	1.0333333333333	0
bin	1.1	0
bin	1.1666666666667	0
bin	1.2333333333333	0
bin	1.3	0
bin	1.3666666666667	0
bin	1.4333333333333	0
bin	1.5	0
statistic scenarioPRJP1.node[98].wlan.radio 	minSNIR:histogram
field count 72745
field mean 4960.9962615383
field stddev 43133.038776541
field sum 360887673.04561
field sqrsum 1.3712759437328e+14
field min 0.0001673381835124
field max 3127015.4926301
attr source  minSNIR
attr title  "Min SNIR, histogram"
bin	-INF	0
bin	-24495.688146451	0
bin	-21229.430956729	0
bin	-17963.173767007	0
bin	-14696.916577286	0
bin	-11430.659387564	0
bin	-8164.4021978427	0
bin	-4898.1450081211	0
bin	-1631.8878183995	64211
bin	1634.369371322	3174
bin	4900.6265610436	1220
bin	8166.8837507652	673
bin	11433.140940487	593
bin	14699.398130208	408
bin	17965.65531993	267
bin	21231.912509652	272
bin	24498.169699373	132
bin	27764.426889095	106
bin	31030.684078816	119
bin	34296.941268538	83
bin	37563.198458259	111
bin	40829.455647981	106
bin	44095.712837703	63
bin	47361.970027424	23
bin	50628.227217146	32
bin	53894.484406867	42
bin	57160.741596589	41
bin	60426.99878631	34
bin	63693.255976032	21
bin	66959.513165754	24
bin	70225.770355475	23
bin	73492.027545197	967
scalar scenarioPRJP1.node[98].lo0.lo 	droppedPkBitError:count 	0
attr interpolationmode  none
attr source  dropPkBitError
attr title  "packets dropped/bit error, count"
scalar scenarioPRJP1.node[98].lo0.lo 	droppedPkBitError:sum(packetBytes) 	0
attr interpolationmode  none
attr source  dropPkBitError
attr title  "packets dropped/bit error, sum(packetBytes)"
scalar scenarioPRJP1.node[98].lo0.lo 	rcvdPkFromHL:count 	12
attr interpolationmode  none
attr source  packetReceivedFromUpper
attr title  "packets received from higher layer, count"
scalar scenarioPRJP1.node[98].lo0.lo 	rcvdPkFromHL:sum(packetBytes) 	672
attr interpolationmode  none
attr source  packetReceivedFromUpper
attr title  "packets received from higher layer, sum(packetBytes)"
scalar scenarioPRJP1.node[98].lo0.lo 	passedUpPk:count 	12
attr interpolationmode  none
attr source  packetSentToUpper
attr title  "packets passed to higher layer, count"
scalar scenarioPRJP1.node[98].lo0.lo 	passedUpPk:sum(packetBytes) 	672
attr interpolationmode  none
attr source  packetSentToUpper
attr title  "packets passed to higher layer, sum(packetBytes)"
