version 2
run AODVRouting-FS-50n-10-20150719-07:21:37-10560
attr configname AODVRouting-FS-50n
attr datetime 20150719-07:21:37
attr experiment AODVRouting-FS-50n
attr inifile omnetpp.ini
attr iterationvars ""
attr iterationvars2 $repetition=10
attr measurement ""
attr network Prj_Part1_propag.scenarioPRJP1
attr processid 10560
attr repetition 10
attr replication #10
attr resultdir results
attr runnumber 10
attr seedset 10

scalar scenarioPRJP1.radioMedium.propagation 	"Arrival computation count" 	48285041
scalar scenarioPRJP1.radioMedium 	"transmission count" 	985409
scalar scenarioPRJP1.radioMedium 	"radio frame send count" 	48285041
scalar scenarioPRJP1.radioMedium 	"reception computation count" 	48117872
scalar scenarioPRJP1.radioMedium 	"interference computation count" 	140422626
scalar scenarioPRJP1.radioMedium 	"reception decision computation count" 	3762247
scalar scenarioPRJP1.radioMedium 	"listening decision computation count" 	88911290
scalar scenarioPRJP1.radioMedium 	"reception cache hit" 	78.236987498247
attr unit  %
scalar scenarioPRJP1.radioMedium 	"interference cache hit" 	50
attr unit  %
scalar scenarioPRJP1.radioMedium 	"noise cache hit" 	0
attr unit  %
scalar scenarioPRJP1.radioMedium 	"snir cache hit" 	0
attr unit  %
scalar scenarioPRJP1.radioMedium 	"reception decision cache hit" 	0
attr unit  %
scalar scenarioPRJP1.node[0].app 	"Total sent" 	2604
scalar scenarioPRJP1.node[0].app 	"Total received" 	214
scalar scenarioPRJP1.node[0].app 	"Total deleted" 	130
scalar scenarioPRJP1.node[0].app 	dropPk:count 	130
attr interpolationmode  none
attr source  dropPk
attr title  "packets dropped, count"
scalar scenarioPRJP1.node[0].app 	dropPk:sum(packetBytes) 	66560
attr interpolationmode  none
attr source  dropPk
attr title  "packets dropped, sum(packetBytes)"
scalar scenarioPRJP1.node[0].app 	outOfOrderPk:count 	109
attr interpolationmode  none
attr source  outOfOrderPk
attr title  "packets received out of order, count"
scalar scenarioPRJP1.node[0].app 	outOfOrderPk:sum(packetBytes) 	55808
attr interpolationmode  none
attr source  outOfOrderPk
attr title  "packets received out of order, sum(packetBytes)"
scalar scenarioPRJP1.node[0].app 	rcvdPk:count 	214
attr interpolationmode  none
attr source  rcvdPk
attr title  "packets received, count"
scalar scenarioPRJP1.node[0].app 	rcvdPk:sum(packetBytes) 	109568
attr interpolationmode  none
attr source  rcvdPk
attr title  "packets received, sum(packetBytes)"
statistic scenarioPRJP1.node[0].app 	endToEndDelay:histogram
field count 214
field mean 1.5643753825006
field stddev 3.9508715065117
field sum 334.77633185512
field sqrsum 3848.5149979837
field min 0.000945022748
field max 17.565933032773
attr interpolationmode  none
attr source  messageAge(rcvdPk)
attr title  "delay, histogram"
attr unit  s
bin	-INF	0
bin	-8.7815489372525	0
bin	-7.6105497385847	0
bin	-6.4395505399169	0
bin	-5.2685513412491	0
bin	-4.0975521425813	0
bin	-2.9265529439135	0
bin	-1.7555537452457	0
bin	-0.5845545465779	170
bin	0.5864446520899	7
bin	1.7574438507577	3
bin	2.9284430494255	6
bin	4.0994422480933	3
bin	5.2704414467611	6
bin	6.4414406454289	2
bin	7.6124398440967	2
bin	8.7834390427645	3
bin	9.9544382414323	0
bin	11.1254374401	1
bin	12.296436638768	1
bin	13.467435837436	1
bin	14.638435036104	2
bin	15.809434234771	4
bin	16.980433433439	3
bin	18.151432632107	0
bin	19.322431830775	0
bin	20.493431029443	0
bin	21.66443022811	0
bin	22.835429426778	0
bin	24.006428625446	0
bin	25.177427824114	0
bin	26.348427022782	0
scalar scenarioPRJP1.node[0].app 	sentPk:count 	2604
attr interpolationmode  none
attr source  sentPk
attr title  "packets sent, count"
scalar scenarioPRJP1.node[0].app 	sentPk:sum(packetBytes) 	1333248
attr interpolationmode  none
attr source  sentPk
attr title  "packets sent, sum(packetBytes)"
scalar scenarioPRJP1.node[0].udp 	droppedPkBadChecksum:count 	0
attr interpolationmode  none
attr title  "packets dropped (checksum error), count"
scalar scenarioPRJP1.node[0].udp 	droppedPkWrongPort:count 	0
attr interpolationmode  none
attr title  "packets dropped (wrong port), count"
scalar scenarioPRJP1.node[0].udp 	passedUpPk:count 	453
attr interpolationmode  none
attr title  "packets passed up, count"
scalar scenarioPRJP1.node[0].udp 	rcvdPk:count 	453
attr interpolationmode  none
attr source  rcvdPk
attr title  "packets received, count"
scalar scenarioPRJP1.node[0].udp 	rcvdPk:sum(packetBytes) 	235560
attr interpolationmode  none
attr source  rcvdPk
attr title  "packets received, sum(packetBytes)"
scalar scenarioPRJP1.node[0].udp 	sentPk:count 	2604
attr interpolationmode  none
attr source  sentPk
attr title  "packets sent, count"
scalar scenarioPRJP1.node[0].udp 	sentPk:sum(packetBytes) 	1354080
attr interpolationmode  none
attr source  sentPk
attr title  "packets sent, sum(packetBytes)"
scalar scenarioPRJP1.node[0].networkLayer.arp 	failedARPResolution:count 	2
attr title  "ARP failed resolutions, count"
scalar scenarioPRJP1.node[0].networkLayer.arp 	completedARPResolution:count 	235
attr title  "ARP completed resolutions, count"
scalar scenarioPRJP1.node[0].networkLayer.arp 	initiatedARPResolution:count 	38
attr title  "ARP initiated resolutions, count"
scalar scenarioPRJP1.node[0].networkLayer.arp 	sentReply:count 	36
attr title  "ARP replies sent, count"
scalar scenarioPRJP1.node[0].networkLayer.arp 	sentReq:count 	48
attr title  "ARP request sent, count"
scalar scenarioPRJP1.node[0].mobility 	startTime 	0.1
scalar scenarioPRJP1.node[0].mobility 	totalTime 	949.8
scalar scenarioPRJP1.node[0].mobility 	stopTime 	950
scalar scenarioPRJP1.node[0].mobility 	minSpeed 	2.4754432714379e-13
scalar scenarioPRJP1.node[0].mobility 	maxSpeed 	17.124254717836
scalar scenarioPRJP1.node[0].mobility 	totalDistance 	8198.5568662736
scalar scenarioPRJP1.node[0].mobility 	totalCO2Emission 	2367.1174639753
scalar scenarioPRJP1.node[0].wlan[0].mgmt 	dataQueueLen:max 	35
attr interpolationmode  sample-hold
attr title  "data queue length, max"
scalar scenarioPRJP1.node[0].wlan[0].mgmt 	dataQueueLen:timeavg 	0
attr interpolationmode  sample-hold
attr title  "data queue length, timeavg"
scalar scenarioPRJP1.node[0].wlan[0].mgmt 	dropPkByQueue:count 	0
attr interpolationmode  none
attr source  dropPkByQueue
attr title  "packets dropped by queue, count"
scalar scenarioPRJP1.node[0].wlan[0].mgmt 	dropPkByQueue:sum(packetBytes) 	0
attr interpolationmode  none
attr source  dropPkByQueue
attr title  "packets dropped by queue, sum(packetBytes)"
scalar scenarioPRJP1.node[0].wlan[0].mac 	"number of received packets" 	5411
scalar scenarioPRJP1.node[0].wlan[0].mac 	"number of collisions" 	6301
scalar scenarioPRJP1.node[0].wlan[0].mac 	"number of internal collisions" 	0
scalar scenarioPRJP1.node[0].wlan[0].mac 	"number of retry for AC 0" 	4958
scalar scenarioPRJP1.node[0].wlan[0].mac 	"number of retry for AC 1" 	12
scalar scenarioPRJP1.node[0].wlan[0].mac 	"number of retry for AC 2" 	0
scalar scenarioPRJP1.node[0].wlan[0].mac 	"number of retry for AC 3" 	0
scalar scenarioPRJP1.node[0].wlan[0].mac 	"sent and received bits" 	10757760
scalar scenarioPRJP1.node[0].wlan[0].mac 	"sent packet within AC 0" 	2270
scalar scenarioPRJP1.node[0].wlan[0].mac 	"sent packet within AC 1" 	0
scalar scenarioPRJP1.node[0].wlan[0].mac 	"sent packet within AC 2" 	0
scalar scenarioPRJP1.node[0].wlan[0].mac 	"sent packet within AC 3" 	0
scalar scenarioPRJP1.node[0].wlan[0].mac 	"sent in TXOP " 	0
scalar scenarioPRJP1.node[0].wlan[0].mac 	"sentWithoutRetry AC 0" 	2162
scalar scenarioPRJP1.node[0].wlan[0].mac 	"sentWithoutRetry AC 1" 	0
scalar scenarioPRJP1.node[0].wlan[0].mac 	"sentWithoutRetry AC 2" 	0
scalar scenarioPRJP1.node[0].wlan[0].mac 	"sentWithoutRetry AC 3" 	0
scalar scenarioPRJP1.node[0].wlan[0].mac 	"numGivenUp AC 0" 	799
scalar scenarioPRJP1.node[0].wlan[0].mac 	"numGivenUp AC 1" 	2
scalar scenarioPRJP1.node[0].wlan[0].mac 	"numGivenUp AC 2" 	0
scalar scenarioPRJP1.node[0].wlan[0].mac 	"numGivenUp AC 3" 	0
scalar scenarioPRJP1.node[0].wlan[0].mac 	"numDropped AC 0" 	0
scalar scenarioPRJP1.node[0].wlan[0].mac 	"numDropped AC 1" 	0
scalar scenarioPRJP1.node[0].wlan[0].mac 	"numDropped AC 2" 	0
scalar scenarioPRJP1.node[0].wlan[0].mac 	"numDropped AC 3" 	0
scalar scenarioPRJP1.node[0].wlan[0].mac 	rcvdPkFromLL:count 	116134
attr interpolationmode  none
attr source  packetReceivedFromLower
attr title  "packets received from lower layer, count"
scalar scenarioPRJP1.node[0].wlan[0].mac 	rcvdPkFromLL:sum(packetBytes) 	19105930
attr interpolationmode  none
attr source  packetReceivedFromLower
attr title  "packets received from lower layer, sum(packetBytes)"
scalar scenarioPRJP1.node[0].wlan[0].mac 	sentDownPk:count 	23560
attr interpolationmode  none
attr source  packetSentToLower
attr title  "packets sent to lower layer, count"
scalar scenarioPRJP1.node[0].wlan[0].mac 	sentDownPk:sum(packetBytes) 	4278566
attr interpolationmode  none
attr source  packetSentToLower
attr title  "packets sent to lower layer, sum(packetBytes)"
scalar scenarioPRJP1.node[0].wlan[0].mac 	rcvdPkFromHL:count 	13179
attr interpolationmode  none
attr source  packetReceivedFromUpper
attr title  "packets received from higher layer, count"
scalar scenarioPRJP1.node[0].wlan[0].mac 	rcvdPkFromHL:sum(packetBytes) 	1742476
attr interpolationmode  none
attr source  packetReceivedFromUpper
attr title  "packets received from higher layer, sum(packetBytes)"
scalar scenarioPRJP1.node[0].wlan[0].mac 	passedUpPk:count 	35352
attr interpolationmode  none
attr source  packetSentToUpper
attr title  "packets passed to higher layer, count"
scalar scenarioPRJP1.node[0].wlan[0].mac 	passedUpPk:sum(packetBytes) 	3613024
attr interpolationmode  none
attr source  packetSentToUpper
attr title  "packets passed to higher layer, sum(packetBytes)"
statistic scenarioPRJP1.node[0].wlan[0].radio 	radioChannel:histogram
field count 1
field mean 3
field stddev -nan
field sum 3
field sqrsum 9
field min 3
field max 3
attr interpolationmode  sample-hold
attr source  radioChannelChanged
attr title  "Radio channel, histogram"
bin	-INF	0
bin	2	0
bin	3	1
bin	4	0
scalar scenarioPRJP1.node[0].wlan[0].radio 	transmissionState:count 	94240
attr interpolationmode  sample-hold
attr source  transmissionStateChanged
attr title  "Radio transmission state, count"
scalar scenarioPRJP1.node[0].wlan[0].radio 	receptionState:count 	280076
attr interpolationmode  sample-hold
attr source  receptionStateChanged
attr title  "Radio reception state, count"
scalar scenarioPRJP1.node[0].wlan[0].radio 	radioMode:count 	47122
attr interpolationmode  sample-hold
attr source  radioModeChanged
attr title  "Radio mode, count"
statistic scenarioPRJP1.node[0].wlan[0].radio 	symbolErrorRate:histogram
field count 0
field mean -nan
field stddev -nan
field sum 0
field sqrsum 0
field min -nan
field max -nan
attr source  symbolErrorRate
attr title  "Symbol error rate, histogram"
bin	-INF	0
bin	-0.5	0
bin	-0.46666666666667	0
bin	-0.43333333333333	0
bin	-0.4	0
bin	-0.36666666666667	0
bin	-0.33333333333333	0
bin	-0.3	0
bin	-0.26666666666667	0
bin	-0.23333333333333	0
bin	-0.2	0
bin	-0.16666666666667	0
bin	-0.13333333333333	0
bin	-0.1	0
bin	-0.066666666666667	0
bin	-0.033333333333333	0
bin	0	0
bin	0.033333333333333	0
bin	0.066666666666667	0
bin	0.1	0
bin	0.13333333333333	0
bin	0.16666666666667	0
bin	0.2	0
bin	0.23333333333333	0
bin	0.26666666666667	0
bin	0.3	0
bin	0.33333333333333	0
bin	0.36666666666667	0
bin	0.4	0
bin	0.43333333333333	0
bin	0.46666666666667	0
bin	0.5	0
statistic scenarioPRJP1.node[0].wlan[0].radio 	bitErrorRate:histogram
field count 0
field mean -nan
field stddev -nan
field sum 0
field sqrsum 0
field min -nan
field max -nan
attr source  bitErrorRate
attr title  "Bit error rate, histogram"
bin	-INF	0
bin	-0.5	0
bin	-0.46666666666667	0
bin	-0.43333333333333	0
bin	-0.4	0
bin	-0.36666666666667	0
bin	-0.33333333333333	0
bin	-0.3	0
bin	-0.26666666666667	0
bin	-0.23333333333333	0
bin	-0.2	0
bin	-0.16666666666667	0
bin	-0.13333333333333	0
bin	-0.1	0
bin	-0.066666666666667	0
bin	-0.033333333333333	0
bin	0	0
bin	0.033333333333333	0
bin	0.066666666666667	0
bin	0.1	0
bin	0.13333333333333	0
bin	0.16666666666667	0
bin	0.2	0
bin	0.23333333333333	0
bin	0.26666666666667	0
bin	0.3	0
bin	0.33333333333333	0
bin	0.36666666666667	0
bin	0.4	0
bin	0.43333333333333	0
bin	0.46666666666667	0
bin	0.5	0
statistic scenarioPRJP1.node[0].wlan[0].radio 	packetErrorRate:histogram
field count 116134
field mean 0.047258016056709
field stddev 0.20630418512742
field sum 5488.2624367299
field sqrsum 5202.1494117193
field min 0
field max 1
attr source  packetErrorRate
attr title  "Packet error rate, histogram"
bin	-INF	0
bin	-0.5	0
bin	-0.43333333333333	0
bin	-0.36666666666667	0
bin	-0.3	0
bin	-0.23333333333333	0
bin	-0.16666666666667	0
bin	-0.1	0
bin	-0.033333333333333	109444
bin	0.033333333333333	509
bin	0.1	235
bin	0.16666666666667	166
bin	0.23333333333333	120
bin	0.3	138
bin	0.36666666666667	77
bin	0.43333333333333	83
bin	0.5	68
bin	0.56666666666667	58
bin	0.63333333333333	73
bin	0.7	78
bin	0.76666666666667	63
bin	0.83333333333333	83
bin	0.9	146
bin	0.96666666666667	4793
bin	1.0333333333333	0
bin	1.1	0
bin	1.1666666666667	0
bin	1.2333333333333	0
bin	1.3	0
bin	1.3666666666667	0
bin	1.4333333333333	0
bin	1.5	0
statistic scenarioPRJP1.node[0].wlan[0].radio 	minSNIR:histogram
field count 116134
field mean 17684.291002721
field stddev 92474.559231123
field sum 2053747451.31
field sqrsum 1.0294355391199e+15
field min 0.00019359255187524
field max 5643073.9980975
attr source  minSNIR
attr title  "Min SNIR, histogram"
bin	-INF	0
bin	-248.76231274947	0
bin	-215.4223107064	0
bin	-182.08230866334	0
bin	-148.74230662028	0
bin	-115.40230457722	0
bin	-82.062302534157	0
bin	-48.722300491095	0
bin	-15.382298448033	24722
bin	17.957703595029	9460
bin	51.297705638091	2633
bin	84.637707681153	1211
bin	117.97770972422	7780
bin	151.31771176728	6524
bin	184.65771381034	3658
bin	217.9977158534	3221
bin	251.33771789646	2859
bin	284.67771993953	2161
bin	318.01772198259	2327
bin	351.35772402565	1850
bin	384.69772606871	1317
bin	418.03772811177	1122
bin	451.37773015484	1078
bin	484.7177321979	990
bin	518.05773424096	813
bin	551.39773628402	657
bin	584.73773832708	535
bin	618.07774037015	484
bin	651.41774241321	561
bin	684.75774445627	452
bin	718.09774649933	466
bin	751.43774854239	39253
scalar scenarioPRJP1.node[0].lo0.lo 	droppedPkBitError:count 	0
attr interpolationmode  none
attr source  dropPkBitError
attr title  "packets dropped/bit error, count"
scalar scenarioPRJP1.node[0].lo0.lo 	droppedPkBitError:sum(packetBytes) 	0
attr interpolationmode  none
attr source  dropPkBitError
attr title  "packets dropped/bit error, sum(packetBytes)"
scalar scenarioPRJP1.node[0].lo0.lo 	rcvdPkFromHL:count 	4
attr interpolationmode  none
attr source  packetReceivedFromUpper
attr title  "packets received from higher layer, count"
scalar scenarioPRJP1.node[0].lo0.lo 	rcvdPkFromHL:sum(packetBytes) 	224
attr interpolationmode  none
attr source  packetReceivedFromUpper
attr title  "packets received from higher layer, sum(packetBytes)"
scalar scenarioPRJP1.node[0].lo0.lo 	passedUpPk:count 	4
attr interpolationmode  none
attr source  packetSentToUpper
attr title  "packets passed to higher layer, count"
scalar scenarioPRJP1.node[0].lo0.lo 	passedUpPk:sum(packetBytes) 	224
attr interpolationmode  none
attr source  packetSentToUpper
attr title  "packets passed to higher layer, sum(packetBytes)"
scalar scenarioPRJP1.node[20].app 	"Total sent" 	2608
scalar scenarioPRJP1.node[20].app 	"Total received" 	159
scalar scenarioPRJP1.node[20].app 	"Total deleted" 	158
scalar scenarioPRJP1.node[20].app 	dropPk:count 	158
attr interpolationmode  none
attr source  dropPk
attr title  "packets dropped, count"
scalar scenarioPRJP1.node[20].app 	dropPk:sum(packetBytes) 	80896
attr interpolationmode  none
attr source  dropPk
attr title  "packets dropped, sum(packetBytes)"
scalar scenarioPRJP1.node[20].app 	outOfOrderPk:count 	32
attr interpolationmode  none
attr source  outOfOrderPk
attr title  "packets received out of order, count"
scalar scenarioPRJP1.node[20].app 	outOfOrderPk:sum(packetBytes) 	16384
attr interpolationmode  none
attr source  outOfOrderPk
attr title  "packets received out of order, sum(packetBytes)"
scalar scenarioPRJP1.node[20].app 	rcvdPk:count 	159
attr interpolationmode  none
attr source  rcvdPk
attr title  "packets received, count"
scalar scenarioPRJP1.node[20].app 	rcvdPk:sum(packetBytes) 	81408
attr interpolationmode  none
attr source  rcvdPk
attr title  "packets received, sum(packetBytes)"
statistic scenarioPRJP1.node[20].app 	endToEndDelay:histogram
field count 159
field mean 2.3645472793081
field stddev 5.0451101162442
field sum 375.96301740998
field sqrsum 4910.5778313718
field min 0.000943564496
field max 19.978083258378
attr interpolationmode  none
attr source  messageAge(rcvdPk)
attr title  "delay, histogram"
attr unit  s
bin	-INF	0
bin	-9.9876240732825	0
bin	-8.655814858542	0
bin	-7.3240056438016	0
bin	-5.9921964290611	0
bin	-4.6603872143206	0
bin	-3.3285779995802	0
bin	-1.9967687848397	0
bin	-0.66495957009924	120
bin	0.66684964464123	5
bin	1.9986588593817	4
bin	3.3304680741222	1
bin	4.6622772888626	3
bin	5.9940865036031	1
bin	7.3258957183436	4
bin	8.657704933084	4
bin	9.9895141478245	2
bin	11.321323362565	1
bin	12.653132577305	2
bin	13.984941792046	4
bin	15.316751006786	2
bin	16.648560221527	3
bin	17.980369436267	2
bin	19.312178651008	1
bin	20.643987865748	0
bin	21.975797080489	0
bin	23.307606295229	0
bin	24.63941550997	0
bin	25.97122472471	0
bin	27.303033939451	0
bin	28.634843154191	0
bin	29.966652368931	0
scalar scenarioPRJP1.node[20].app 	sentPk:count 	2608
attr interpolationmode  none
attr source  sentPk
attr title  "packets sent, count"
scalar scenarioPRJP1.node[20].app 	sentPk:sum(packetBytes) 	1335296
attr interpolationmode  none
attr source  sentPk
attr title  "packets sent, sum(packetBytes)"
scalar scenarioPRJP1.node[20].udp 	droppedPkBadChecksum:count 	0
attr interpolationmode  none
attr title  "packets dropped (checksum error), count"
scalar scenarioPRJP1.node[20].udp 	droppedPkWrongPort:count 	0
attr interpolationmode  none
attr title  "packets dropped (wrong port), count"
scalar scenarioPRJP1.node[20].udp 	passedUpPk:count 	349
attr interpolationmode  none
attr title  "packets passed up, count"
scalar scenarioPRJP1.node[20].udp 	rcvdPk:count 	349
attr interpolationmode  none
attr source  rcvdPk
attr title  "packets received, count"
scalar scenarioPRJP1.node[20].udp 	rcvdPk:sum(packetBytes) 	181480
attr interpolationmode  none
attr source  rcvdPk
attr title  "packets received, sum(packetBytes)"
scalar scenarioPRJP1.node[20].udp 	sentPk:count 	2608
attr interpolationmode  none
attr source  sentPk
attr title  "packets sent, count"
scalar scenarioPRJP1.node[20].udp 	sentPk:sum(packetBytes) 	1356160
attr interpolationmode  none
attr source  sentPk
attr title  "packets sent, sum(packetBytes)"
scalar scenarioPRJP1.node[20].networkLayer.arp 	failedARPResolution:count 	5
attr title  "ARP failed resolutions, count"
scalar scenarioPRJP1.node[20].networkLayer.arp 	completedARPResolution:count 	171
attr title  "ARP completed resolutions, count"
scalar scenarioPRJP1.node[20].networkLayer.arp 	initiatedARPResolution:count 	39
attr title  "ARP initiated resolutions, count"
scalar scenarioPRJP1.node[20].networkLayer.arp 	sentReply:count 	30
attr title  "ARP replies sent, count"
scalar scenarioPRJP1.node[20].networkLayer.arp 	sentReq:count 	57
attr title  "ARP request sent, count"
scalar scenarioPRJP1.node[20].mobility 	startTime 	2.5
scalar scenarioPRJP1.node[20].mobility 	totalTime 	947.4
scalar scenarioPRJP1.node[20].mobility 	stopTime 	950
scalar scenarioPRJP1.node[20].mobility 	minSpeed 	2.4754792650124e-13
scalar scenarioPRJP1.node[20].mobility 	maxSpeed 	21.317713842248
scalar scenarioPRJP1.node[20].mobility 	totalDistance 	10059.623517427
scalar scenarioPRJP1.node[20].mobility 	totalCO2Emission 	3023.9602916637
scalar scenarioPRJP1.node[20].wlan[0].mgmt 	dataQueueLen:max 	22
attr interpolationmode  sample-hold
attr title  "data queue length, max"
scalar scenarioPRJP1.node[20].wlan[0].mgmt 	dataQueueLen:timeavg 	0
attr interpolationmode  sample-hold
attr title  "data queue length, timeavg"
scalar scenarioPRJP1.node[20].wlan[0].mgmt 	dropPkByQueue:count 	0
attr interpolationmode  none
attr source  dropPkByQueue
attr title  "packets dropped by queue, count"
scalar scenarioPRJP1.node[20].wlan[0].mgmt 	dropPkByQueue:sum(packetBytes) 	0
attr interpolationmode  none
attr source  dropPkByQueue
attr title  "packets dropped by queue, sum(packetBytes)"
scalar scenarioPRJP1.node[20].wlan[0].mac 	"number of received packets" 	3026
scalar scenarioPRJP1.node[20].wlan[0].mac 	"number of collisions" 	3685
scalar scenarioPRJP1.node[20].wlan[0].mac 	"number of internal collisions" 	0
scalar scenarioPRJP1.node[20].wlan[0].mac 	"number of retry for AC 0" 	3635
scalar scenarioPRJP1.node[20].wlan[0].mac 	"number of retry for AC 1" 	0
scalar scenarioPRJP1.node[20].wlan[0].mac 	"number of retry for AC 2" 	0
scalar scenarioPRJP1.node[20].wlan[0].mac 	"number of retry for AC 3" 	0
scalar scenarioPRJP1.node[20].wlan[0].mac 	"sent and received bits" 	8153696
scalar scenarioPRJP1.node[20].wlan[0].mac 	"sent packet within AC 0" 	514
scalar scenarioPRJP1.node[20].wlan[0].mac 	"sent packet within AC 1" 	1
scalar scenarioPRJP1.node[20].wlan[0].mac 	"sent packet within AC 2" 	0
scalar scenarioPRJP1.node[20].wlan[0].mac 	"sent packet within AC 3" 	0
scalar scenarioPRJP1.node[20].wlan[0].mac 	"sent in TXOP " 	0
scalar scenarioPRJP1.node[20].wlan[0].mac 	"sentWithoutRetry AC 0" 	477
scalar scenarioPRJP1.node[20].wlan[0].mac 	"sentWithoutRetry AC 1" 	1
scalar scenarioPRJP1.node[20].wlan[0].mac 	"sentWithoutRetry AC 2" 	0
scalar scenarioPRJP1.node[20].wlan[0].mac 	"sentWithoutRetry AC 3" 	0
scalar scenarioPRJP1.node[20].wlan[0].mac 	"numGivenUp AC 0" 	595
scalar scenarioPRJP1.node[20].wlan[0].mac 	"numGivenUp AC 1" 	0
scalar scenarioPRJP1.node[20].wlan[0].mac 	"numGivenUp AC 2" 	0
scalar scenarioPRJP1.node[20].wlan[0].mac 	"numGivenUp AC 3" 	0
scalar scenarioPRJP1.node[20].wlan[0].mac 	"numDropped AC 0" 	0
scalar scenarioPRJP1.node[20].wlan[0].mac 	"numDropped AC 1" 	0
scalar scenarioPRJP1.node[20].wlan[0].mac 	"numDropped AC 2" 	0
scalar scenarioPRJP1.node[20].wlan[0].mac 	"numDropped AC 3" 	0
scalar scenarioPRJP1.node[20].wlan[0].mac 	rcvdPkFromLL:count 	61450
attr interpolationmode  none
attr source  packetReceivedFromLower
attr title  "packets received from lower layer, count"
scalar scenarioPRJP1.node[20].wlan[0].mac 	rcvdPkFromLL:sum(packetBytes) 	12443502
attr interpolationmode  none
attr source  packetReceivedFromLower
attr title  "packets received from lower layer, sum(packetBytes)"
scalar scenarioPRJP1.node[20].wlan[0].mac 	sentDownPk:count 	16269
attr interpolationmode  none
attr source  packetSentToLower
attr title  "packets sent to lower layer, count"
scalar scenarioPRJP1.node[20].wlan[0].mac 	sentDownPk:sum(packetBytes) 	3082592
attr interpolationmode  none
attr source  packetSentToLower
attr title  "packets sent to lower layer, sum(packetBytes)"
scalar scenarioPRJP1.node[20].wlan[0].mac 	rcvdPkFromHL:count 	9608
attr interpolationmode  none
attr source  packetReceivedFromUpper
attr title  "packets received from higher layer, count"
scalar scenarioPRJP1.node[20].wlan[0].mac 	rcvdPkFromHL:sum(packetBytes) 	1303356
attr interpolationmode  none
attr source  packetReceivedFromUpper
attr title  "packets received from higher layer, sum(packetBytes)"
scalar scenarioPRJP1.node[20].wlan[0].mac 	passedUpPk:count 	25591
attr interpolationmode  none
attr source  packetSentToUpper
attr title  "packets passed to higher layer, count"
scalar scenarioPRJP1.node[20].wlan[0].mac 	passedUpPk:sum(packetBytes) 	2618628
attr interpolationmode  none
attr source  packetSentToUpper
attr title  "packets passed to higher layer, sum(packetBytes)"
statistic scenarioPRJP1.node[20].wlan[0].radio 	radioChannel:histogram
field count 1
field mean 3
field stddev -nan
field sum 3
field sqrsum 9
field min 3
field max 3
attr interpolationmode  sample-hold
attr source  radioChannelChanged
attr title  "Radio channel, histogram"
bin	-INF	0
bin	2	0
bin	3	1
bin	4	0
scalar scenarioPRJP1.node[20].wlan[0].radio 	transmissionState:count 	65076
attr interpolationmode  sample-hold
attr source  transmissionStateChanged
attr title  "Radio transmission state, count"
scalar scenarioPRJP1.node[20].wlan[0].radio 	receptionState:count 	155779
attr interpolationmode  sample-hold
attr source  receptionStateChanged
attr title  "Radio reception state, count"
scalar scenarioPRJP1.node[20].wlan[0].radio 	radioMode:count 	32540
attr interpolationmode  sample-hold
attr source  radioModeChanged
attr title  "Radio mode, count"
statistic scenarioPRJP1.node[20].wlan[0].radio 	symbolErrorRate:histogram
field count 0
field mean -nan
field stddev -nan
field sum 0
field sqrsum 0
field min -nan
field max -nan
attr source  symbolErrorRate
attr title  "Symbol error rate, histogram"
bin	-INF	0
bin	-0.5	0
bin	-0.46666666666667	0
bin	-0.43333333333333	0
bin	-0.4	0
bin	-0.36666666666667	0
bin	-0.33333333333333	0
bin	-0.3	0
bin	-0.26666666666667	0
bin	-0.23333333333333	0
bin	-0.2	0
bin	-0.16666666666667	0
bin	-0.13333333333333	0
bin	-0.1	0
bin	-0.066666666666667	0
bin	-0.033333333333333	0
bin	0	0
bin	0.033333333333333	0
bin	0.066666666666667	0
bin	0.1	0
bin	0.13333333333333	0
bin	0.16666666666667	0
bin	0.2	0
bin	0.23333333333333	0
bin	0.26666666666667	0
bin	0.3	0
bin	0.33333333333333	0
bin	0.36666666666667	0
bin	0.4	0
bin	0.43333333333333	0
bin	0.46666666666667	0
bin	0.5	0
statistic scenarioPRJP1.node[20].wlan[0].radio 	bitErrorRate:histogram
field count 0
field mean -nan
field stddev -nan
field sum 0
field sqrsum 0
field min -nan
field max -nan
attr source  bitErrorRate
attr title  "Bit error rate, histogram"
bin	-INF	0
bin	-0.5	0
bin	-0.46666666666667	0
bin	-0.43333333333333	0
bin	-0.4	0
bin	-0.36666666666667	0
bin	-0.33333333333333	0
bin	-0.3	0
bin	-0.26666666666667	0
bin	-0.23333333333333	0
bin	-0.2	0
bin	-0.16666666666667	0
bin	-0.13333333333333	0
bin	-0.1	0
bin	-0.066666666666667	0
bin	-0.033333333333333	0
bin	0	0
bin	0.033333333333333	0
bin	0.066666666666667	0
bin	0.1	0
bin	0.13333333333333	0
bin	0.16666666666667	0
bin	0.2	0
bin	0.23333333333333	0
bin	0.26666666666667	0
bin	0.3	0
bin	0.33333333333333	0
bin	0.36666666666667	0
bin	0.4	0
bin	0.43333333333333	0
bin	0.46666666666667	0
bin	0.5	0
statistic scenarioPRJP1.node[20].wlan[0].radio 	packetErrorRate:histogram
field count 61450
field mean 0.053452289791695
field stddev 0.21823970721529
field sum 3284.6432076997
field sqrsum 3102.2996865733
field min 0
field max 1
attr source  packetErrorRate
attr title  "Packet error rate, histogram"
bin	-INF	0
bin	-0.49999999917682	0
bin	-0.43333333261991	0
bin	-0.366666666063	0
bin	-0.29999999950609	0
bin	-0.23333333294918	0
bin	-0.16666666639227	0
bin	-0.099999999835364	0
bin	-0.033333333278455	57336
bin	0.033333333278455	364
bin	0.099999999835364	162
bin	0.16666666639227	128
bin	0.23333333294918	91
bin	0.29999999950609	85
bin	0.366666666063	45
bin	0.43333333261991	41
bin	0.49999999917682	53
bin	0.56666666573373	34
bin	0.63333333229064	41
bin	0.69999999884755	29
bin	0.76666666540446	44
bin	0.83333333196137	58
bin	0.89999999851827	67
bin	0.96666666507518	2872
bin	1.0333333316321	0
bin	1.099999998189	0
bin	1.1666666647459	0
bin	1.2333333313028	0
bin	1.2999999978597	0
bin	1.3666666644166	0
bin	1.4333333309735	0
bin	1.4999999975305	0
statistic scenarioPRJP1.node[20].wlan[0].radio 	minSNIR:histogram
field count 61450
field mean 14866.950143753
field stddev 79294.234705158
field sum 913574086.33361
field sqrsum 3.9994729697043e+14
field min 0.0002403581871802
field max 1131944.9712954
attr source  minSNIR
attr title  "Min SNIR, histogram"
bin	-INF	0
bin	-109.63947745185	0
bin	-94.669206812592	0
bin	-79.69893617333	0
bin	-64.728665534068	0
bin	-49.758394894806	0
bin	-34.788124255544	0
bin	-19.817853616282	0
bin	-4.8475829770195	11578
bin	10.122687662243	6599
bin	25.092958301505	2834
bin	40.063228940767	1429
bin	55.033499580029	701
bin	70.003770219291	542
bin	84.974040858553	474
bin	99.944311497815	283
bin	114.91458213708	898
bin	129.88485277634	2191
bin	144.8551234156	2379
bin	159.82539405486	1490
bin	174.79566469413	1302
bin	189.76593533339	1322
bin	204.73620597265	934
bin	219.70647661191	836
bin	234.67674725117	753
bin	249.64701789044	775
bin	264.6172885297	616
bin	279.58755916896	874
bin	294.55782980822	610
bin	309.52810044748	521
bin	324.49837108675	447
bin	339.46864172601	21062
scalar scenarioPRJP1.node[20].lo0.lo 	droppedPkBitError:count 	0
attr interpolationmode  none
attr source  dropPkBitError
attr title  "packets dropped/bit error, count"
scalar scenarioPRJP1.node[20].lo0.lo 	droppedPkBitError:sum(packetBytes) 	0
attr interpolationmode  none
attr source  dropPkBitError
attr title  "packets dropped/bit error, sum(packetBytes)"
scalar scenarioPRJP1.node[20].lo0.lo 	rcvdPkFromHL:count 	0
attr interpolationmode  none
attr source  packetReceivedFromUpper
attr title  "packets received from higher layer, count"
scalar scenarioPRJP1.node[20].lo0.lo 	rcvdPkFromHL:sum(packetBytes) 	0
attr interpolationmode  none
attr source  packetReceivedFromUpper
attr title  "packets received from higher layer, sum(packetBytes)"
scalar scenarioPRJP1.node[20].lo0.lo 	passedUpPk:count 	0
attr interpolationmode  none
attr source  packetSentToUpper
attr title  "packets passed to higher layer, count"
scalar scenarioPRJP1.node[20].lo0.lo 	passedUpPk:sum(packetBytes) 	0
attr interpolationmode  none
attr source  packetSentToUpper
attr title  "packets passed to higher layer, sum(packetBytes)"
scalar scenarioPRJP1.node[1].app 	"Total sent" 	2611
scalar scenarioPRJP1.node[1].app 	"Total received" 	200
scalar scenarioPRJP1.node[1].app 	"Total deleted" 	157
scalar scenarioPRJP1.node[1].app 	dropPk:count 	157
attr interpolationmode  none
attr source  dropPk
attr title  "packets dropped, count"
scalar scenarioPRJP1.node[1].app 	dropPk:sum(packetBytes) 	80384
attr interpolationmode  none
attr source  dropPk
attr title  "packets dropped, sum(packetBytes)"
scalar scenarioPRJP1.node[1].app 	outOfOrderPk:count 	63
attr interpolationmode  none
attr source  outOfOrderPk
attr title  "packets received out of order, count"
scalar scenarioPRJP1.node[1].app 	outOfOrderPk:sum(packetBytes) 	32256
attr interpolationmode  none
attr source  outOfOrderPk
attr title  "packets received out of order, sum(packetBytes)"
scalar scenarioPRJP1.node[1].app 	rcvdPk:count 	200
attr interpolationmode  none
attr source  rcvdPk
attr title  "packets received, count"
scalar scenarioPRJP1.node[1].app 	rcvdPk:sum(packetBytes) 	102400
attr interpolationmode  none
attr source  rcvdPk
attr title  "packets received, sum(packetBytes)"
statistic scenarioPRJP1.node[1].app 	endToEndDelay:histogram
field count 200
field mean 2.1336466885111
field stddev 4.5686368511355
field sum 426.72933770222
field sqrsum 5064.105731112
field min 0.000945064386
field max 19.174586097792
attr interpolationmode  none
attr source  messageAge(rcvdPk)
attr title  "delay, histogram"
attr unit  s
bin	-INF	0
bin	-9.585875452317	0
bin	-8.3076327167566	0
bin	-7.0293899811962	0
bin	-5.7511472456358	0
bin	-4.4729045100754	0
bin	-3.194661774515	0
bin	-1.9164190389546	0
bin	-0.6381763033942	149
bin	0.6400664321662	8
bin	1.9183091677266	1
bin	3.196551903287	8
bin	4.4747946388474	2
bin	5.7530373744078	3
bin	7.0312801099682	4
bin	8.3095228455286	7
bin	9.587765581089	3
bin	10.866008316649	1
bin	12.14425105221	4
bin	13.42249378777	1
bin	14.700736523331	1
bin	15.978979258891	3
bin	17.257221994451	2
bin	18.535464730012	3
bin	19.813707465572	0
bin	21.091950201133	0
bin	22.370192936693	0
bin	23.648435672253	0
bin	24.926678407814	0
bin	26.204921143374	0
bin	27.483163878935	0
bin	28.761406614495	0
scalar scenarioPRJP1.node[1].app 	sentPk:count 	2611
attr interpolationmode  none
attr source  sentPk
attr title  "packets sent, count"
scalar scenarioPRJP1.node[1].app 	sentPk:sum(packetBytes) 	1336832
attr interpolationmode  none
attr source  sentPk
attr title  "packets sent, sum(packetBytes)"
scalar scenarioPRJP1.node[1].udp 	droppedPkBadChecksum:count 	0
attr interpolationmode  none
attr title  "packets dropped (checksum error), count"
scalar scenarioPRJP1.node[1].udp 	droppedPkWrongPort:count 	0
attr interpolationmode  none
attr title  "packets dropped (wrong port), count"
scalar scenarioPRJP1.node[1].udp 	passedUpPk:count 	420
attr interpolationmode  none
attr title  "packets passed up, count"
scalar scenarioPRJP1.node[1].udp 	rcvdPk:count 	420
attr interpolationmode  none
attr source  rcvdPk
attr title  "packets received, count"
scalar scenarioPRJP1.node[1].udp 	rcvdPk:sum(packetBytes) 	218400
attr interpolationmode  none
attr source  rcvdPk
attr title  "packets received, sum(packetBytes)"
scalar scenarioPRJP1.node[1].udp 	sentPk:count 	2611
attr interpolationmode  none
attr source  sentPk
attr title  "packets sent, count"
scalar scenarioPRJP1.node[1].udp 	sentPk:sum(packetBytes) 	1357720
attr interpolationmode  none
attr source  sentPk
attr title  "packets sent, sum(packetBytes)"
scalar scenarioPRJP1.node[1].networkLayer.arp 	failedARPResolution:count 	2
attr title  "ARP failed resolutions, count"
scalar scenarioPRJP1.node[1].networkLayer.arp 	completedARPResolution:count 	217
attr title  "ARP completed resolutions, count"
scalar scenarioPRJP1.node[1].networkLayer.arp 	initiatedARPResolution:count 	35
attr title  "ARP initiated resolutions, count"
scalar scenarioPRJP1.node[1].networkLayer.arp 	sentReply:count 	41
attr title  "ARP replies sent, count"
scalar scenarioPRJP1.node[1].networkLayer.arp 	sentReq:count 	42
attr title  "ARP request sent, count"
scalar scenarioPRJP1.node[1].mobility 	startTime 	0.1
scalar scenarioPRJP1.node[1].mobility 	totalTime 	949.8
scalar scenarioPRJP1.node[1].mobility 	stopTime 	950
scalar scenarioPRJP1.node[1].mobility 	minSpeed 	2.4754831766591e-13
scalar scenarioPRJP1.node[1].mobility 	maxSpeed 	17.690304642027
scalar scenarioPRJP1.node[1].mobility 	totalDistance 	8931.3731926961
scalar scenarioPRJP1.node[1].mobility 	totalCO2Emission 	2471.4971187751
scalar scenarioPRJP1.node[1].wlan[0].mgmt 	dataQueueLen:max 	44
attr interpolationmode  sample-hold
attr title  "data queue length, max"
scalar scenarioPRJP1.node[1].wlan[0].mgmt 	dataQueueLen:timeavg 	0
attr interpolationmode  sample-hold
attr title  "data queue length, timeavg"
scalar scenarioPRJP1.node[1].wlan[0].mgmt 	dropPkByQueue:count 	0
attr interpolationmode  none
attr source  dropPkByQueue
attr title  "packets dropped by queue, count"
scalar scenarioPRJP1.node[1].wlan[0].mgmt 	dropPkByQueue:sum(packetBytes) 	0
attr interpolationmode  none
attr source  dropPkByQueue
attr title  "packets dropped by queue, sum(packetBytes)"
scalar scenarioPRJP1.node[1].wlan[0].mac 	"number of received packets" 	3643
scalar scenarioPRJP1.node[1].wlan[0].mac 	"number of collisions" 	3498
scalar scenarioPRJP1.node[1].wlan[0].mac 	"number of internal collisions" 	0
scalar scenarioPRJP1.node[1].wlan[0].mac 	"number of retry for AC 0" 	4698
scalar scenarioPRJP1.node[1].wlan[0].mac 	"number of retry for AC 1" 	0
scalar scenarioPRJP1.node[1].wlan[0].mac 	"number of retry for AC 2" 	0
scalar scenarioPRJP1.node[1].wlan[0].mac 	"number of retry for AC 3" 	0
scalar scenarioPRJP1.node[1].wlan[0].mac 	"sent and received bits" 	7918400
scalar scenarioPRJP1.node[1].wlan[0].mac 	"sent packet within AC 0" 	493
scalar scenarioPRJP1.node[1].wlan[0].mac 	"sent packet within AC 1" 	0
scalar scenarioPRJP1.node[1].wlan[0].mac 	"sent packet within AC 2" 	0
scalar scenarioPRJP1.node[1].wlan[0].mac 	"sent packet within AC 3" 	0
scalar scenarioPRJP1.node[1].wlan[0].mac 	"sent in TXOP " 	0
scalar scenarioPRJP1.node[1].wlan[0].mac 	"sentWithoutRetry AC 0" 	446
scalar scenarioPRJP1.node[1].wlan[0].mac 	"sentWithoutRetry AC 1" 	0
scalar scenarioPRJP1.node[1].wlan[0].mac 	"sentWithoutRetry AC 2" 	0
scalar scenarioPRJP1.node[1].wlan[0].mac 	"sentWithoutRetry AC 3" 	0
scalar scenarioPRJP1.node[1].wlan[0].mac 	"numGivenUp AC 0" 	769
scalar scenarioPRJP1.node[1].wlan[0].mac 	"numGivenUp AC 1" 	0
scalar scenarioPRJP1.node[1].wlan[0].mac 	"numGivenUp AC 2" 	0
scalar scenarioPRJP1.node[1].wlan[0].mac 	"numGivenUp AC 3" 	0
scalar scenarioPRJP1.node[1].wlan[0].mac 	"numDropped AC 0" 	1
scalar scenarioPRJP1.node[1].wlan[0].mac 	"numDropped AC 1" 	0
scalar scenarioPRJP1.node[1].wlan[0].mac 	"numDropped AC 2" 	0
scalar scenarioPRJP1.node[1].wlan[0].mac 	"numDropped AC 3" 	0
scalar scenarioPRJP1.node[1].wlan[0].mac 	rcvdPkFromLL:count 	65391
attr interpolationmode  none
attr source  packetReceivedFromLower
attr title  "packets received from lower layer, count"
scalar scenarioPRJP1.node[1].wlan[0].mac 	rcvdPkFromLL:sum(packetBytes) 	12885060
attr interpolationmode  none
attr source  packetReceivedFromLower
attr title  "packets received from lower layer, sum(packetBytes)"
scalar scenarioPRJP1.node[1].wlan[0].mac 	sentDownPk:count 	17927
attr interpolationmode  none
attr source  packetSentToLower
attr title  "packets sent to lower layer, count"
scalar scenarioPRJP1.node[1].wlan[0].mac 	sentDownPk:sum(packetBytes) 	3728746
attr interpolationmode  none
attr source  packetSentToLower
attr title  "packets sent to lower layer, sum(packetBytes)"
scalar scenarioPRJP1.node[1].wlan[0].mac 	rcvdPkFromHL:count 	9587
attr interpolationmode  none
attr source  packetReceivedFromUpper
attr title  "packets received from higher layer, count"
scalar scenarioPRJP1.node[1].wlan[0].mac 	rcvdPkFromHL:sum(packetBytes) 	1367316
attr interpolationmode  none
attr source  packetReceivedFromUpper
attr title  "packets received from higher layer, sum(packetBytes)"
scalar scenarioPRJP1.node[1].wlan[0].mac 	passedUpPk:count 	26521
attr interpolationmode  none
attr source  packetSentToUpper
attr title  "packets passed to higher layer, count"
scalar scenarioPRJP1.node[1].wlan[0].mac 	passedUpPk:sum(packetBytes) 	2740636
attr interpolationmode  none
attr source  packetSentToUpper
attr title  "packets passed to higher layer, sum(packetBytes)"
statistic scenarioPRJP1.node[1].wlan[0].radio 	radioChannel:histogram
field count 1
field mean 3
field stddev -nan
field sum 3
field sqrsum 9
field min 3
field max 3
attr interpolationmode  sample-hold
attr source  radioChannelChanged
attr title  "Radio channel, histogram"
bin	-INF	0
bin	2	0
bin	3	1
bin	4	0
scalar scenarioPRJP1.node[1].wlan[0].radio 	transmissionState:count 	71708
attr interpolationmode  sample-hold
attr source  transmissionStateChanged
attr title  "Radio transmission state, count"
scalar scenarioPRJP1.node[1].wlan[0].radio 	receptionState:count 	167028
attr interpolationmode  sample-hold
attr source  receptionStateChanged
attr title  "Radio reception state, count"
scalar scenarioPRJP1.node[1].wlan[0].radio 	radioMode:count 	35856
attr interpolationmode  sample-hold
attr source  radioModeChanged
attr title  "Radio mode, count"
statistic scenarioPRJP1.node[1].wlan[0].radio 	symbolErrorRate:histogram
field count 0
field mean -nan
field stddev -nan
field sum 0
field sqrsum 0
field min -nan
field max -nan
attr source  symbolErrorRate
attr title  "Symbol error rate, histogram"
bin	-INF	0
bin	-0.5	0
bin	-0.46666666666667	0
bin	-0.43333333333333	0
bin	-0.4	0
bin	-0.36666666666667	0
bin	-0.33333333333333	0
bin	-0.3	0
bin	-0.26666666666667	0
bin	-0.23333333333333	0
bin	-0.2	0
bin	-0.16666666666667	0
bin	-0.13333333333333	0
bin	-0.1	0
bin	-0.066666666666667	0
bin	-0.033333333333333	0
bin	0	0
bin	0.033333333333333	0
bin	0.066666666666667	0
bin	0.1	0
bin	0.13333333333333	0
bin	0.16666666666667	0
bin	0.2	0
bin	0.23333333333333	0
bin	0.26666666666667	0
bin	0.3	0
bin	0.33333333333333	0
bin	0.36666666666667	0
bin	0.4	0
bin	0.43333333333333	0
bin	0.46666666666667	0
bin	0.5	0
statistic scenarioPRJP1.node[1].wlan[0].radio 	bitErrorRate:histogram
field count 0
field mean -nan
field stddev -nan
field sum 0
field sqrsum 0
field min -nan
field max -nan
attr source  bitErrorRate
attr title  "Bit error rate, histogram"
bin	-INF	0
bin	-0.5	0
bin	-0.46666666666667	0
bin	-0.43333333333333	0
bin	-0.4	0
bin	-0.36666666666667	0
bin	-0.33333333333333	0
bin	-0.3	0
bin	-0.26666666666667	0
bin	-0.23333333333333	0
bin	-0.2	0
bin	-0.16666666666667	0
bin	-0.13333333333333	0
bin	-0.1	0
bin	-0.066666666666667	0
bin	-0.033333333333333	0
bin	0	0
bin	0.033333333333333	0
bin	0.066666666666667	0
bin	0.1	0
bin	0.13333333333333	0
bin	0.16666666666667	0
bin	0.2	0
bin	0.23333333333333	0
bin	0.26666666666667	0
bin	0.3	0
bin	0.33333333333333	0
bin	0.36666666666667	0
bin	0.4	0
bin	0.43333333333333	0
bin	0.46666666666667	0
bin	0.5	0
statistic scenarioPRJP1.node[1].wlan[0].radio 	packetErrorRate:histogram
field count 65391
field mean 0.046414665706071
field stddev 0.20420127766435
field sum 3035.1014051857
field sqrsum 2867.5160171914
field min 0
field max 1
attr source  packetErrorRate
attr title  "Packet error rate, histogram"
bin	-INF	0
bin	-0.5	0
bin	-0.43333333333333	0
bin	-0.36666666666667	0
bin	-0.3	0
bin	-0.23333333333333	0
bin	-0.16666666666667	0
bin	-0.1	0
bin	-0.033333333333333	61646
bin	0.033333333333333	284
bin	0.1	159
bin	0.16666666666667	112
bin	0.23333333333333	71
bin	0.3	60
bin	0.36666666666667	44
bin	0.43333333333333	42
bin	0.5	40
bin	0.56666666666667	31
bin	0.63333333333333	35
bin	0.7	72
bin	0.76666666666667	36
bin	0.83333333333333	66
bin	0.9	68
bin	0.96666666666667	2625
bin	1.0333333333333	0
bin	1.1	0
bin	1.1666666666667	0
bin	1.2333333333333	0
bin	1.3	0
bin	1.3666666666667	0
bin	1.4333333333333	0
bin	1.5	0
statistic scenarioPRJP1.node[1].wlan[0].radio 	minSNIR:histogram
field count 65391
field mean 9829.6515326519
field stddev 50706.09545129
field sum 642770743.37164
field sqrsum 1.7444297212243e+14
field min 0.00035723603435631
field max 768458.2514624
attr source  minSNIR
attr title  "Min SNIR, histogram"
bin	-INF	0
bin	-43609.760318283	0
bin	-37794.838137601	0
bin	-31979.915956918	0
bin	-26164.993776236	0
bin	-20350.071595554	0
bin	-14535.149414871	0
bin	-8720.2272341887	0
bin	-2905.3050535062	55776
bin	2909.6171271762	2704
bin	8724.5393078587	1550
bin	14539.461488541	990
bin	20354.383669224	835
bin	26169.305849906	205
bin	31984.228030588	253
bin	37799.150211271	162
bin	43614.072391953	174
bin	49428.994572636	96
bin	55243.916753318	152
bin	61058.838934001	118
bin	66873.761114683	63
bin	72688.683295366	61
bin	78503.605476048	50
bin	84318.52765673	14
bin	90133.449837413	44
bin	95948.372018095	14
bin	101763.29419878	36
bin	107578.21637946	34
bin	113393.13856014	53
bin	119208.06074083	20
bin	125022.98292151	41
bin	130837.90510219	1946
scalar scenarioPRJP1.node[1].lo0.lo 	droppedPkBitError:count 	0
attr interpolationmode  none
attr source  dropPkBitError
attr title  "packets dropped/bit error, count"
scalar scenarioPRJP1.node[1].lo0.lo 	droppedPkBitError:sum(packetBytes) 	0
attr interpolationmode  none
attr source  dropPkBitError
attr title  "packets dropped/bit error, sum(packetBytes)"
scalar scenarioPRJP1.node[1].lo0.lo 	rcvdPkFromHL:count 	0
attr interpolationmode  none
attr source  packetReceivedFromUpper
attr title  "packets received from higher layer, count"
scalar scenarioPRJP1.node[1].lo0.lo 	rcvdPkFromHL:sum(packetBytes) 	0
attr interpolationmode  none
attr source  packetReceivedFromUpper
attr title  "packets received from higher layer, sum(packetBytes)"
scalar scenarioPRJP1.node[1].lo0.lo 	passedUpPk:count 	0
attr interpolationmode  none
attr source  packetSentToUpper
attr title  "packets passed to higher layer, count"
scalar scenarioPRJP1.node[1].lo0.lo 	passedUpPk:sum(packetBytes) 	0
attr interpolationmode  none
attr source  packetSentToUpper
attr title  "packets passed to higher layer, sum(packetBytes)"
scalar scenarioPRJP1.node[21].app 	"Total sent" 	2634
scalar scenarioPRJP1.node[21].app 	"Total received" 	199
scalar scenarioPRJP1.node[21].app 	"Total deleted" 	166
scalar scenarioPRJP1.node[21].app 	dropPk:count 	166
attr interpolationmode  none
attr source  dropPk
attr title  "packets dropped, count"
scalar scenarioPRJP1.node[21].app 	dropPk:sum(packetBytes) 	84992
attr interpolationmode  none
attr source  dropPk
attr title  "packets dropped, sum(packetBytes)"
scalar scenarioPRJP1.node[21].app 	outOfOrderPk:count 	73
attr interpolationmode  none
attr source  outOfOrderPk
attr title  "packets received out of order, count"
scalar scenarioPRJP1.node[21].app 	outOfOrderPk:sum(packetBytes) 	37376
attr interpolationmode  none
attr source  outOfOrderPk
attr title  "packets received out of order, sum(packetBytes)"
scalar scenarioPRJP1.node[21].app 	rcvdPk:count 	199
attr interpolationmode  none
attr source  rcvdPk
attr title  "packets received, count"
scalar scenarioPRJP1.node[21].app 	rcvdPk:sum(packetBytes) 	101888
attr interpolationmode  none
attr source  rcvdPk
attr title  "packets received, sum(packetBytes)"
statistic scenarioPRJP1.node[21].app 	endToEndDelay:histogram
field count 199
field mean 2.2819610038924
field stddev 5.0995401182963
field sum 454.11023977458
field sqrsum 6185.3131234202
field min 0.000958048665
field max 19.934970686678
attr interpolationmode  none
attr source  messageAge(rcvdPk)
attr title  "delay, histogram"
attr unit  s
bin	-INF	0
bin	-9.9660482703415	0
bin	-8.637114094474	0
bin	-7.3081799186064	0
bin	-5.9792457427389	0
bin	-4.6503115668714	0
bin	-3.3213773910038	0
bin	-1.9924432151363	0
bin	-0.66350903926877	156
bin	0.66542513659877	5
bin	1.9943593124663	1
bin	3.3232934883338	3
bin	4.6522276642014	4
bin	5.9811618400689	3
bin	7.3100960159364	1
bin	8.639030191804	4
bin	9.9679643676715	1
bin	11.296898543539	4
bin	12.625832719407	1
bin	13.954766895274	4
bin	15.283701071142	3
bin	16.612635247009	5
bin	17.941569422877	3
bin	19.270503598744	1
bin	20.599437774612	0
bin	21.928371950479	0
bin	23.257306126347	0
bin	24.586240302214	0
bin	25.915174478082	0
bin	27.244108653949	0
bin	28.573042829817	0
bin	29.901977005685	0
scalar scenarioPRJP1.node[21].app 	sentPk:count 	2634
attr interpolationmode  none
attr source  sentPk
attr title  "packets sent, count"
scalar scenarioPRJP1.node[21].app 	sentPk:sum(packetBytes) 	1348608
attr interpolationmode  none
attr source  sentPk
attr title  "packets sent, sum(packetBytes)"
scalar scenarioPRJP1.node[21].udp 	droppedPkBadChecksum:count 	0
attr interpolationmode  none
attr title  "packets dropped (checksum error), count"
scalar scenarioPRJP1.node[21].udp 	droppedPkWrongPort:count 	0
attr interpolationmode  none
attr title  "packets dropped (wrong port), count"
scalar scenarioPRJP1.node[21].udp 	passedUpPk:count 	438
attr interpolationmode  none
attr title  "packets passed up, count"
scalar scenarioPRJP1.node[21].udp 	rcvdPk:count 	438
attr interpolationmode  none
attr source  rcvdPk
attr title  "packets received, count"
scalar scenarioPRJP1.node[21].udp 	rcvdPk:sum(packetBytes) 	227760
attr interpolationmode  none
attr source  rcvdPk
attr title  "packets received, sum(packetBytes)"
scalar scenarioPRJP1.node[21].udp 	sentPk:count 	2634
attr interpolationmode  none
attr source  sentPk
attr title  "packets sent, count"
scalar scenarioPRJP1.node[21].udp 	sentPk:sum(packetBytes) 	1369680
attr interpolationmode  none
attr source  sentPk
attr title  "packets sent, sum(packetBytes)"
scalar scenarioPRJP1.node[21].networkLayer.arp 	failedARPResolution:count 	0
attr title  "ARP failed resolutions, count"
scalar scenarioPRJP1.node[21].networkLayer.arp 	completedARPResolution:count 	205
attr title  "ARP completed resolutions, count"
scalar scenarioPRJP1.node[21].networkLayer.arp 	initiatedARPResolution:count 	40
attr title  "ARP initiated resolutions, count"
scalar scenarioPRJP1.node[21].networkLayer.arp 	sentReply:count 	31
attr title  "ARP replies sent, count"
scalar scenarioPRJP1.node[21].networkLayer.arp 	sentReq:count 	46
attr title  "ARP request sent, count"
scalar scenarioPRJP1.node[21].mobility 	startTime 	2.5
scalar scenarioPRJP1.node[21].mobility 	totalTime 	947.4
scalar scenarioPRJP1.node[21].mobility 	stopTime 	950
scalar scenarioPRJP1.node[21].mobility 	minSpeed 	2.4755481168014e-13
scalar scenarioPRJP1.node[21].mobility 	maxSpeed 	16.387180296062
scalar scenarioPRJP1.node[21].mobility 	totalDistance 	8769.6649049297
scalar scenarioPRJP1.node[21].mobility 	totalCO2Emission 	2263.5558715092
scalar scenarioPRJP1.node[21].wlan[0].mgmt 	dataQueueLen:max 	22
attr interpolationmode  sample-hold
attr title  "data queue length, max"
scalar scenarioPRJP1.node[21].wlan[0].mgmt 	dataQueueLen:timeavg 	0
attr interpolationmode  sample-hold
attr title  "data queue length, timeavg"
scalar scenarioPRJP1.node[21].wlan[0].mgmt 	dropPkByQueue:count 	0
attr interpolationmode  none
attr source  dropPkByQueue
attr title  "packets dropped by queue, count"
scalar scenarioPRJP1.node[21].wlan[0].mgmt 	dropPkByQueue:sum(packetBytes) 	0
attr interpolationmode  none
attr source  dropPkByQueue
attr title  "packets dropped by queue, sum(packetBytes)"
scalar scenarioPRJP1.node[21].wlan[0].mac 	"number of received packets" 	4644
scalar scenarioPRJP1.node[21].wlan[0].mac 	"number of collisions" 	3677
scalar scenarioPRJP1.node[21].wlan[0].mac 	"number of internal collisions" 	0
scalar scenarioPRJP1.node[21].wlan[0].mac 	"number of retry for AC 0" 	5021
scalar scenarioPRJP1.node[21].wlan[0].mac 	"number of retry for AC 1" 	0
scalar scenarioPRJP1.node[21].wlan[0].mac 	"number of retry for AC 2" 	0
scalar scenarioPRJP1.node[21].wlan[0].mac 	"number of retry for AC 3" 	0
scalar scenarioPRJP1.node[21].wlan[0].mac 	"sent and received bits" 	7556416
scalar scenarioPRJP1.node[21].wlan[0].mac 	"sent packet within AC 0" 	434
scalar scenarioPRJP1.node[21].wlan[0].mac 	"sent packet within AC 1" 	0
scalar scenarioPRJP1.node[21].wlan[0].mac 	"sent packet within AC 2" 	0
scalar scenarioPRJP1.node[21].wlan[0].mac 	"sent packet within AC 3" 	0
scalar scenarioPRJP1.node[21].wlan[0].mac 	"sent in TXOP " 	0
scalar scenarioPRJP1.node[21].wlan[0].mac 	"sentWithoutRetry AC 0" 	409
scalar scenarioPRJP1.node[21].wlan[0].mac 	"sentWithoutRetry AC 1" 	0
scalar scenarioPRJP1.node[21].wlan[0].mac 	"sentWithoutRetry AC 2" 	0
scalar scenarioPRJP1.node[21].wlan[0].mac 	"sentWithoutRetry AC 3" 	0
scalar scenarioPRJP1.node[21].wlan[0].mac 	"numGivenUp AC 0" 	831
scalar scenarioPRJP1.node[21].wlan[0].mac 	"numGivenUp AC 1" 	0
scalar scenarioPRJP1.node[21].wlan[0].mac 	"numGivenUp AC 2" 	0
scalar scenarioPRJP1.node[21].wlan[0].mac 	"numGivenUp AC 3" 	0
scalar scenarioPRJP1.node[21].wlan[0].mac 	"numDropped AC 0" 	0
scalar scenarioPRJP1.node[21].wlan[0].mac 	"numDropped AC 1" 	0
scalar scenarioPRJP1.node[21].wlan[0].mac 	"numDropped AC 2" 	0
scalar scenarioPRJP1.node[21].wlan[0].mac 	"numDropped AC 3" 	0
scalar scenarioPRJP1.node[21].wlan[0].mac 	rcvdPkFromLL:count 	60665
attr interpolationmode  none
attr source  packetReceivedFromLower
attr title  "packets received from lower layer, count"
scalar scenarioPRJP1.node[21].wlan[0].mac 	rcvdPkFromLL:sum(packetBytes) 	12381834
attr interpolationmode  none
attr source  packetReceivedFromLower
attr title  "packets received from lower layer, sum(packetBytes)"
scalar scenarioPRJP1.node[21].wlan[0].mac 	sentDownPk:count 	19074
attr interpolationmode  none
attr source  packetSentToLower
attr title  "packets sent to lower layer, count"
scalar scenarioPRJP1.node[21].wlan[0].mac 	sentDownPk:sum(packetBytes) 	3891160
attr interpolationmode  none
attr source  packetSentToLower
attr title  "packets sent to lower layer, sum(packetBytes)"
scalar scenarioPRJP1.node[21].wlan[0].mac 	rcvdPkFromHL:count 	9409
attr interpolationmode  none
attr source  packetReceivedFromUpper
attr title  "packets received from higher layer, count"
scalar scenarioPRJP1.node[21].wlan[0].mac 	rcvdPkFromHL:sum(packetBytes) 	1353892
attr interpolationmode  none
attr source  packetReceivedFromUpper
attr title  "packets received from higher layer, sum(packetBytes)"
scalar scenarioPRJP1.node[21].wlan[0].mac 	passedUpPk:count 	25301
attr interpolationmode  none
attr source  packetSentToUpper
attr title  "packets passed to higher layer, count"
scalar scenarioPRJP1.node[21].wlan[0].mac 	passedUpPk:sum(packetBytes) 	2674340
attr interpolationmode  none
attr source  packetSentToUpper
attr title  "packets passed to higher layer, sum(packetBytes)"
statistic scenarioPRJP1.node[21].wlan[0].radio 	radioChannel:histogram
field count 1
field mean 3
field stddev -nan
field sum 3
field sqrsum 9
field min 3
field max 3
attr interpolationmode  sample-hold
attr source  radioChannelChanged
attr title  "Radio channel, histogram"
bin	-INF	0
bin	2	0
bin	3	1
bin	4	0
scalar scenarioPRJP1.node[21].wlan[0].radio 	transmissionState:count 	76294
attr interpolationmode  sample-hold
attr source  transmissionStateChanged
attr title  "Radio transmission state, count"
scalar scenarioPRJP1.node[21].wlan[0].radio 	receptionState:count 	159851
attr interpolationmode  sample-hold
attr source  receptionStateChanged
attr title  "Radio reception state, count"
scalar scenarioPRJP1.node[21].wlan[0].radio 	radioMode:count 	38149
attr interpolationmode  sample-hold
attr source  radioModeChanged
attr title  "Radio mode, count"
statistic scenarioPRJP1.node[21].wlan[0].radio 	symbolErrorRate:histogram
field count 0
field mean -nan
field stddev -nan
field sum 0
field sqrsum 0
field min -nan
field max -nan
attr source  symbolErrorRate
attr title  "Symbol error rate, histogram"
bin	-INF	0
bin	-0.5	0
bin	-0.46666666666667	0
bin	-0.43333333333333	0
bin	-0.4	0
bin	-0.36666666666667	0
bin	-0.33333333333333	0
bin	-0.3	0
bin	-0.26666666666667	0
bin	-0.23333333333333	0
bin	-0.2	0
bin	-0.16666666666667	0
bin	-0.13333333333333	0
bin	-0.1	0
bin	-0.066666666666667	0
bin	-0.033333333333333	0
bin	0	0
bin	0.033333333333333	0
bin	0.066666666666667	0
bin	0.1	0
bin	0.13333333333333	0
bin	0.16666666666667	0
bin	0.2	0
bin	0.23333333333333	0
bin	0.26666666666667	0
bin	0.3	0
bin	0.33333333333333	0
bin	0.36666666666667	0
bin	0.4	0
bin	0.43333333333333	0
bin	0.46666666666667	0
bin	0.5	0
statistic scenarioPRJP1.node[21].wlan[0].radio 	bitErrorRate:histogram
field count 0
field mean -nan
field stddev -nan
field sum 0
field sqrsum 0
field min -nan
field max -nan
attr source  bitErrorRate
attr title  "Bit error rate, histogram"
bin	-INF	0
bin	-0.5	0
bin	-0.46666666666667	0
bin	-0.43333333333333	0
bin	-0.4	0
bin	-0.36666666666667	0
bin	-0.33333333333333	0
bin	-0.3	0
bin	-0.26666666666667	0
bin	-0.23333333333333	0
bin	-0.2	0
bin	-0.16666666666667	0
bin	-0.13333333333333	0
bin	-0.1	0
bin	-0.066666666666667	0
bin	-0.033333333333333	0
bin	0	0
bin	0.033333333333333	0
bin	0.066666666666667	0
bin	0.1	0
bin	0.13333333333333	0
bin	0.16666666666667	0
bin	0.2	0
bin	0.23333333333333	0
bin	0.26666666666667	0
bin	0.3	0
bin	0.33333333333333	0
bin	0.36666666666667	0
bin	0.4	0
bin	0.43333333333333	0
bin	0.46666666666667	0
bin	0.5	0
statistic scenarioPRJP1.node[21].wlan[0].radio 	packetErrorRate:histogram
field count 60665
field mean 0.053550859604582
field stddev 0.2192735943594
field sum 3248.662897912
field sqrsum 3090.7489654439
field min 0
field max 1
attr source  packetErrorRate
attr title  "Packet error rate, histogram"
bin	-INF	0
bin	-0.014182892277139	0
bin	-0.01229183997352	0
bin	-0.010400787669902	0
bin	-0.0085097353662832	0
bin	-0.0066186830626647	0
bin	-0.0047276307590462	0
bin	-0.0028365784554277	0
bin	-0.00094552615180924	55710
bin	0.00094552615180924	283
bin	0.0028365784554277	147
bin	0.0047276307590462	95
bin	0.0066186830626647	67
bin	0.0085097353662832	49
bin	0.010400787669902	51
bin	0.01229183997352	56
bin	0.014182892277139	32
bin	0.016073944580757	30
bin	0.017964996884376	48
bin	0.019856049187994	30
bin	0.021747101491613	33
bin	0.023638153795231	22
bin	0.02552920609885	19
bin	0.027420258402468	28
bin	0.029311310706087	17
bin	0.031202363009705	19
bin	0.033093415313324	8
bin	0.034984467616942	10
bin	0.03687551992056	32
bin	0.038766572224179	5
bin	0.040657624527797	17
bin	0.042548676831416	3857
statistic scenarioPRJP1.node[21].wlan[0].radio 	minSNIR:histogram
field count 60665
field mean 10039.62080288
field stddev 60898.790145004
field sum 609053596.00673
field sqrsum 2.3109697761376e+14
field min 0.000709900372216
field max 1214597.0900706
attr source  minSNIR
attr title  "Min SNIR, histogram"
bin	-INF	0
bin	-77663.678685793	0
bin	-67308.220792134	0
bin	-56952.762898475	0
bin	-46597.305004817	0
bin	-36241.847111158	0
bin	-25886.389217499	0
bin	-15530.93132384	0
bin	-5175.4734301816	53901
bin	5179.9844634771	2527
bin	15535.442357136	1074
bin	25890.900250795	640
bin	36246.358144453	406
bin	46601.816038112	171
bin	56957.273931771	145
bin	67312.73182543	73
bin	77668.189719088	77
bin	88023.647612747	52
bin	98379.105506406	49
bin	108734.56340006	90
bin	119090.02129372	155
bin	129445.47918738	50
bin	139800.93708104	122
bin	150156.3949747	60
bin	160511.85286836	48
bin	170867.31076202	447
bin	181222.76865568	27
bin	191578.22654933	3
bin	201933.68444299	15
bin	212289.14233665	2
bin	222644.60023031	8
bin	233000.05812397	523
scalar scenarioPRJP1.node[21].lo0.lo 	droppedPkBitError:count 	0
attr interpolationmode  none
attr source  dropPkBitError
attr title  "packets dropped/bit error, count"
scalar scenarioPRJP1.node[21].lo0.lo 	droppedPkBitError:sum(packetBytes) 	0
attr interpolationmode  none
attr source  dropPkBitError
attr title  "packets dropped/bit error, sum(packetBytes)"
scalar scenarioPRJP1.node[21].lo0.lo 	rcvdPkFromHL:count 	0
attr interpolationmode  none
attr source  packetReceivedFromUpper
attr title  "packets received from higher layer, count"
scalar scenarioPRJP1.node[21].lo0.lo 	rcvdPkFromHL:sum(packetBytes) 	0
attr interpolationmode  none
attr source  packetReceivedFromUpper
attr title  "packets received from higher layer, sum(packetBytes)"
scalar scenarioPRJP1.node[21].lo0.lo 	passedUpPk:count 	0
attr interpolationmode  none
attr source  packetSentToUpper
attr title  "packets passed to higher layer, count"
scalar scenarioPRJP1.node[21].lo0.lo 	passedUpPk:sum(packetBytes) 	0
attr interpolationmode  none
attr source  packetSentToUpper
attr title  "packets passed to higher layer, sum(packetBytes)"
scalar scenarioPRJP1.node[2].app 	"Total sent" 	2614
scalar scenarioPRJP1.node[2].app 	"Total received" 	163
scalar scenarioPRJP1.node[2].app 	"Total deleted" 	164
scalar scenarioPRJP1.node[2].app 	dropPk:count 	164
attr interpolationmode  none
attr source  dropPk
attr title  "packets dropped, count"
scalar scenarioPRJP1.node[2].app 	dropPk:sum(packetBytes) 	83968
attr interpolationmode  none
attr source  dropPk
attr title  "packets dropped, sum(packetBytes)"
scalar scenarioPRJP1.node[2].app 	outOfOrderPk:count 	41
attr interpolationmode  none
attr source  outOfOrderPk
attr title  "packets received out of order, count"
scalar scenarioPRJP1.node[2].app 	outOfOrderPk:sum(packetBytes) 	20992
attr interpolationmode  none
attr source  outOfOrderPk
attr title  "packets received out of order, sum(packetBytes)"
scalar scenarioPRJP1.node[2].app 	rcvdPk:count 	163
attr interpolationmode  none
attr source  rcvdPk
attr title  "packets received, count"
scalar scenarioPRJP1.node[2].app 	rcvdPk:sum(packetBytes) 	83456
attr interpolationmode  none
attr source  rcvdPk
attr title  "packets received, sum(packetBytes)"
statistic scenarioPRJP1.node[2].app 	endToEndDelay:histogram
field count 163
field mean 2.5499579935118
field stddev 5.3560808495523
field sum 415.64315294243
field sqrsum 5707.2641151384
field min 0.000945022686
field max 19.427136848456
attr interpolationmode  none
attr source  messageAge(rcvdPk)
attr title  "delay, histogram"
attr unit  s
bin	-INF	0
bin	-9.7121508455785	0
bin	-8.4170713925103	0
bin	-7.1219919394421	0
bin	-5.8269124863739	0
bin	-4.5318330333057	0
bin	-3.2367535802375	0
bin	-1.9416741271693	0
bin	-0.6465946741011	123
bin	0.6484847789671	5
bin	1.9435642320353	2
bin	3.2386436851035	2
bin	4.5337231381717	2
bin	5.8288025912399	1
bin	7.1238820443081	4
bin	8.4189614973763	2
bin	9.7140409504445	2
bin	11.009120403513	2
bin	12.304199856581	3
bin	13.599279309649	3
bin	14.894358762717	5
bin	16.189438215786	2
bin	17.484517668854	0
bin	18.779597121922	5
bin	20.07467657499	0
bin	21.369756028058	0
bin	22.664835481127	0
bin	23.959914934195	0
bin	25.254994387263	0
bin	26.550073840331	0
bin	27.845153293399	0
bin	29.140232746467	0
scalar scenarioPRJP1.node[2].app 	sentPk:count 	2614
attr interpolationmode  none
attr source  sentPk
attr title  "packets sent, count"
scalar scenarioPRJP1.node[2].app 	sentPk:sum(packetBytes) 	1338368
attr interpolationmode  none
attr source  sentPk
attr title  "packets sent, sum(packetBytes)"
scalar scenarioPRJP1.node[2].udp 	droppedPkBadChecksum:count 	0
attr interpolationmode  none
attr title  "packets dropped (checksum error), count"
scalar scenarioPRJP1.node[2].udp 	droppedPkWrongPort:count 	0
attr interpolationmode  none
attr title  "packets dropped (wrong port), count"
scalar scenarioPRJP1.node[2].udp 	passedUpPk:count 	368
attr interpolationmode  none
attr title  "packets passed up, count"
scalar scenarioPRJP1.node[2].udp 	rcvdPk:count 	368
attr interpolationmode  none
attr source  rcvdPk
attr title  "packets received, count"
scalar scenarioPRJP1.node[2].udp 	rcvdPk:sum(packetBytes) 	191360
attr interpolationmode  none
attr source  rcvdPk
attr title  "packets received, sum(packetBytes)"
scalar scenarioPRJP1.node[2].udp 	sentPk:count 	2614
attr interpolationmode  none
attr source  sentPk
attr title  "packets sent, count"
scalar scenarioPRJP1.node[2].udp 	sentPk:sum(packetBytes) 	1359280
attr interpolationmode  none
attr source  sentPk
attr title  "packets sent, sum(packetBytes)"
scalar scenarioPRJP1.node[2].networkLayer.arp 	failedARPResolution:count 	3
attr title  "ARP failed resolutions, count"
scalar scenarioPRJP1.node[2].networkLayer.arp 	completedARPResolution:count 	162
attr title  "ARP completed resolutions, count"
scalar scenarioPRJP1.node[2].networkLayer.arp 	initiatedARPResolution:count 	39
attr title  "ARP initiated resolutions, count"
scalar scenarioPRJP1.node[2].networkLayer.arp 	sentReply:count 	25
attr title  "ARP replies sent, count"
scalar scenarioPRJP1.node[2].networkLayer.arp 	sentReq:count 	49
attr title  "ARP request sent, count"
scalar scenarioPRJP1.node[2].mobility 	startTime 	0.1
scalar scenarioPRJP1.node[2].mobility 	totalTime 	949.8
scalar scenarioPRJP1.node[2].mobility 	stopTime 	950
scalar scenarioPRJP1.node[2].mobility 	minSpeed 	2.4757257195943e-13
scalar scenarioPRJP1.node[2].mobility 	maxSpeed 	15.662904752582
scalar scenarioPRJP1.node[2].mobility 	totalDistance 	9295.1481296143
scalar scenarioPRJP1.node[2].mobility 	totalCO2Emission 	2323.9392242794
scalar scenarioPRJP1.node[2].wlan[0].mgmt 	dataQueueLen:max 	30
attr interpolationmode  sample-hold
attr title  "data queue length, max"
scalar scenarioPRJP1.node[2].wlan[0].mgmt 	dataQueueLen:timeavg 	0
attr interpolationmode  sample-hold
attr title  "data queue length, timeavg"
scalar scenarioPRJP1.node[2].wlan[0].mgmt 	dropPkByQueue:count 	0
attr interpolationmode  none
attr source  dropPkByQueue
attr title  "packets dropped by queue, count"
scalar scenarioPRJP1.node[2].wlan[0].mgmt 	dropPkByQueue:sum(packetBytes) 	0
attr interpolationmode  none
attr source  dropPkByQueue
attr title  "packets dropped by queue, sum(packetBytes)"
scalar scenarioPRJP1.node[2].wlan[0].mac 	"number of received packets" 	3718
scalar scenarioPRJP1.node[2].wlan[0].mac 	"number of collisions" 	4822
scalar scenarioPRJP1.node[2].wlan[0].mac 	"number of internal collisions" 	0
scalar scenarioPRJP1.node[2].wlan[0].mac 	"number of retry for AC 0" 	4008
scalar scenarioPRJP1.node[2].wlan[0].mac 	"number of retry for AC 1" 	0
scalar scenarioPRJP1.node[2].wlan[0].mac 	"number of retry for AC 2" 	0
scalar scenarioPRJP1.node[2].wlan[0].mac 	"number of retry for AC 3" 	0
scalar scenarioPRJP1.node[2].wlan[0].mac 	"sent and received bits" 	7306752
scalar scenarioPRJP1.node[2].wlan[0].mac 	"sent packet within AC 0" 	451
scalar scenarioPRJP1.node[2].wlan[0].mac 	"sent packet within AC 1" 	0
scalar scenarioPRJP1.node[2].wlan[0].mac 	"sent packet within AC 2" 	0
scalar scenarioPRJP1.node[2].wlan[0].mac 	"sent packet within AC 3" 	0
scalar scenarioPRJP1.node[2].wlan[0].mac 	"sent in TXOP " 	0
scalar scenarioPRJP1.node[2].wlan[0].mac 	"sentWithoutRetry AC 0" 	425
scalar scenarioPRJP1.node[2].wlan[0].mac 	"sentWithoutRetry AC 1" 	0
scalar scenarioPRJP1.node[2].wlan[0].mac 	"sentWithoutRetry AC 2" 	0
scalar scenarioPRJP1.node[2].wlan[0].mac 	"sentWithoutRetry AC 3" 	0
scalar scenarioPRJP1.node[2].wlan[0].mac 	"numGivenUp AC 0" 	661
scalar scenarioPRJP1.node[2].wlan[0].mac 	"numGivenUp AC 1" 	0
scalar scenarioPRJP1.node[2].wlan[0].mac 	"numGivenUp AC 2" 	0
scalar scenarioPRJP1.node[2].wlan[0].mac 	"numGivenUp AC 3" 	0
scalar scenarioPRJP1.node[2].wlan[0].mac 	"numDropped AC 0" 	0
scalar scenarioPRJP1.node[2].wlan[0].mac 	"numDropped AC 1" 	0
scalar scenarioPRJP1.node[2].wlan[0].mac 	"numDropped AC 2" 	0
scalar scenarioPRJP1.node[2].wlan[0].mac 	"numDropped AC 3" 	0
scalar scenarioPRJP1.node[2].wlan[0].mac 	rcvdPkFromLL:count 	64709
attr interpolationmode  none
attr source  packetReceivedFromLower
attr title  "packets received from lower layer, count"
scalar scenarioPRJP1.node[2].wlan[0].mac 	rcvdPkFromLL:sum(packetBytes) 	11979818
attr interpolationmode  none
attr source  packetReceivedFromLower
attr title  "packets received from lower layer, sum(packetBytes)"
scalar scenarioPRJP1.node[2].wlan[0].mac 	sentDownPk:count 	16663
attr interpolationmode  none
attr source  packetSentToLower
attr title  "packets sent to lower layer, count"
scalar scenarioPRJP1.node[2].wlan[0].mac 	sentDownPk:sum(packetBytes) 	3253068
attr interpolationmode  none
attr source  packetSentToLower
attr title  "packets sent to lower layer, sum(packetBytes)"
scalar scenarioPRJP1.node[2].wlan[0].mac 	rcvdPkFromHL:count 	8937
attr interpolationmode  none
attr source  packetReceivedFromUpper
attr title  "packets received from higher layer, count"
scalar scenarioPRJP1.node[2].wlan[0].mac 	rcvdPkFromHL:sum(packetBytes) 	1237120
attr interpolationmode  none
attr source  packetReceivedFromUpper
attr title  "packets received from higher layer, sum(packetBytes)"
scalar scenarioPRJP1.node[2].wlan[0].mac 	passedUpPk:count 	25008
attr interpolationmode  none
attr source  packetSentToUpper
attr title  "packets passed to higher layer, count"
scalar scenarioPRJP1.node[2].wlan[0].mac 	passedUpPk:sum(packetBytes) 	2629284
attr interpolationmode  none
attr source  packetSentToUpper
attr title  "packets passed to higher layer, sum(packetBytes)"
statistic scenarioPRJP1.node[2].wlan[0].radio 	radioChannel:histogram
field count 1
field mean 3
field stddev -nan
field sum 3
field sqrsum 9
field min 3
field max 3
attr interpolationmode  sample-hold
attr source  radioChannelChanged
attr title  "Radio channel, histogram"
bin	-INF	0
bin	2	0
bin	3	1
bin	4	0
scalar scenarioPRJP1.node[2].wlan[0].radio 	transmissionState:count 	66652
attr interpolationmode  sample-hold
attr source  transmissionStateChanged
attr title  "Radio transmission state, count"
scalar scenarioPRJP1.node[2].wlan[0].radio 	receptionState:count 	163190
attr interpolationmode  sample-hold
attr source  receptionStateChanged
attr title  "Radio reception state, count"
scalar scenarioPRJP1.node[2].wlan[0].radio 	radioMode:count 	33328
attr interpolationmode  sample-hold
attr source  radioModeChanged
attr title  "Radio mode, count"
statistic scenarioPRJP1.node[2].wlan[0].radio 	symbolErrorRate:histogram
field count 0
field mean -nan
field stddev -nan
field sum 0
field sqrsum 0
field min -nan
field max -nan
attr source  symbolErrorRate
attr title  "Symbol error rate, histogram"
bin	-INF	0
bin	-0.5	0
bin	-0.46666666666667	0
bin	-0.43333333333333	0
bin	-0.4	0
bin	-0.36666666666667	0
bin	-0.33333333333333	0
bin	-0.3	0
bin	-0.26666666666667	0
bin	-0.23333333333333	0
bin	-0.2	0
bin	-0.16666666666667	0
bin	-0.13333333333333	0
bin	-0.1	0
bin	-0.066666666666667	0
bin	-0.033333333333333	0
bin	0	0
bin	0.033333333333333	0
bin	0.066666666666667	0
bin	0.1	0
bin	0.13333333333333	0
bin	0.16666666666667	0
bin	0.2	0
bin	0.23333333333333	0
bin	0.26666666666667	0
bin	0.3	0
bin	0.33333333333333	0
bin	0.36666666666667	0
bin	0.4	0
bin	0.43333333333333	0
bin	0.46666666666667	0
bin	0.5	0
statistic scenarioPRJP1.node[2].wlan[0].radio 	bitErrorRate:histogram
field count 0
field mean -nan
field stddev -nan
field sum 0
field sqrsum 0
field min -nan
field max -nan
attr source  bitErrorRate
attr title  "Bit error rate, histogram"
bin	-INF	0
bin	-0.5	0
bin	-0.46666666666667	0
bin	-0.43333333333333	0
bin	-0.4	0
bin	-0.36666666666667	0
bin	-0.33333333333333	0
bin	-0.3	0
bin	-0.26666666666667	0
bin	-0.23333333333333	0
bin	-0.2	0
bin	-0.16666666666667	0
bin	-0.13333333333333	0
bin	-0.1	0
bin	-0.066666666666667	0
bin	-0.033333333333333	0
bin	0	0
bin	0.033333333333333	0
bin	0.066666666666667	0
bin	0.1	0
bin	0.13333333333333	0
bin	0.16666666666667	0
bin	0.2	0
bin	0.23333333333333	0
bin	0.26666666666667	0
bin	0.3	0
bin	0.33333333333333	0
bin	0.36666666666667	0
bin	0.4	0
bin	0.43333333333333	0
bin	0.46666666666667	0
bin	0.5	0
statistic scenarioPRJP1.node[2].wlan[0].radio 	packetErrorRate:histogram
field count 64709
field mean 0.067778448839842
field stddev 0.24432902289568
field sum 4385.8756459773
field sqrsum 4160.1200629268
field min 0
field max 1
attr source  packetErrorRate
attr title  "Packet error rate, histogram"
bin	-INF	7980
bin	-8.0824236192711e-14	0
bin	-7.0047671367017e-14	0
bin	-5.9271106541322e-14	0
bin	-4.8494541715627e-14	0
bin	-3.7717976889932e-14	0
bin	-2.6941412064237e-14	0
bin	-1.6164847238542e-14	0
bin	-5.3882824128474e-15	51164
bin	5.3882824128474e-15	64
bin	1.6164847238542e-14	0
bin	2.6941412064237e-14	38
bin	3.7717976889932e-14	23
bin	4.8494541715627e-14	0
bin	5.9271106541322e-14	9
bin	7.0047671367017e-14	43
bin	8.0824236192711e-14	86
bin	9.1600801018406e-14	2
bin	1.023773658441e-13	6
bin	1.131539306698e-13	3
bin	1.2393049549549e-13	0
bin	1.3470706032119e-13	1
bin	1.4548362514688e-13	10
bin	1.5626018997258e-13	41
bin	1.6703675479827e-13	0
bin	1.7781331962397e-13	7
bin	1.8858988444966e-13	7
bin	1.9936644927535e-13	0
bin	2.1014301410105e-13	5
bin	2.2091957892674e-13	13
bin	2.3169614375244e-13	2
bin	2.4247270857813e-13	5205
statistic scenarioPRJP1.node[2].wlan[0].radio 	minSNIR:histogram
field count 64709
field mean 19987.709634412
field stddev 105099.52101199
field sum 1293384702.7332
field sqrsum 7.40610497965e+14
field min 0.00016874234300481
field max 1062194.5414493
attr source  minSNIR
attr title  "Min SNIR, histogram"
bin	-INF	0
bin	-549.57741993513	0
bin	-475.38184370567	0
bin	-401.18626747621	0
bin	-326.99069124675	0
bin	-252.79511501729	0
bin	-178.59953878783	0
bin	-104.40396255837	0
bin	-30.208386328905	24883
bin	43.987189900555	2872
bin	118.18276613002	11150
bin	192.37834235948	5247
bin	266.57391858894	2711
bin	340.7694948184	1733
bin	414.96507104786	1222
bin	489.16064727732	642
bin	563.35622350678	521
bin	637.55179973624	492
bin	711.7473759657	330
bin	785.94295219516	320
bin	860.13852842462	260
bin	934.33410465408	305
bin	1008.5296808835	272
bin	1082.725257113	276
bin	1156.9208333425	286
bin	1231.1164095719	244
bin	1305.3119858014	206
bin	1379.5075620308	241
bin	1453.7031382603	151
bin	1527.8987144898	120
bin	1602.0942907192	108
bin	1676.2898669487	10117
scalar scenarioPRJP1.node[2].lo0.lo 	droppedPkBitError:count 	0
attr interpolationmode  none
attr source  dropPkBitError
attr title  "packets dropped/bit error, count"
scalar scenarioPRJP1.node[2].lo0.lo 	droppedPkBitError:sum(packetBytes) 	0
attr interpolationmode  none
attr source  dropPkBitError
attr title  "packets dropped/bit error, sum(packetBytes)"
scalar scenarioPRJP1.node[2].lo0.lo 	rcvdPkFromHL:count 	0
attr interpolationmode  none
attr source  packetReceivedFromUpper
attr title  "packets received from higher layer, count"
scalar scenarioPRJP1.node[2].lo0.lo 	rcvdPkFromHL:sum(packetBytes) 	0
attr interpolationmode  none
attr source  packetReceivedFromUpper
attr title  "packets received from higher layer, sum(packetBytes)"
scalar scenarioPRJP1.node[2].lo0.lo 	passedUpPk:count 	0
attr interpolationmode  none
attr source  packetSentToUpper
attr title  "packets passed to higher layer, count"
scalar scenarioPRJP1.node[2].lo0.lo 	passedUpPk:sum(packetBytes) 	0
attr interpolationmode  none
attr source  packetSentToUpper
attr title  "packets passed to higher layer, sum(packetBytes)"
scalar scenarioPRJP1.node[22].app 	"Total sent" 	2608
scalar scenarioPRJP1.node[22].app 	"Total received" 	257
scalar scenarioPRJP1.node[22].app 	"Total deleted" 	138
scalar scenarioPRJP1.node[22].app 	dropPk:count 	138
attr interpolationmode  none
attr source  dropPk
attr title  "packets dropped, count"
scalar scenarioPRJP1.node[22].app 	dropPk:sum(packetBytes) 	70656
attr interpolationmode  none
attr source  dropPk
attr title  "packets dropped, sum(packetBytes)"
scalar scenarioPRJP1.node[22].app 	outOfOrderPk:count 	78
attr interpolationmode  none
attr source  outOfOrderPk
attr title  "packets received out of order, count"
scalar scenarioPRJP1.node[22].app 	outOfOrderPk:sum(packetBytes) 	39936
attr interpolationmode  none
attr source  outOfOrderPk
attr title  "packets received out of order, sum(packetBytes)"
scalar scenarioPRJP1.node[22].app 	rcvdPk:count 	257
attr interpolationmode  none
attr source  rcvdPk
attr title  "packets received, count"
scalar scenarioPRJP1.node[22].app 	rcvdPk:sum(packetBytes) 	131584
attr interpolationmode  none
attr source  rcvdPk
attr title  "packets received, sum(packetBytes)"
statistic scenarioPRJP1.node[22].app 	endToEndDelay:histogram
field count 257
field mean 1.3325256294169
field stddev 4.062471831535
field sum 342.45908676015
field sqrsum 4681.2769199306
field min 0.000945011007
field max 19.890027324572
attr interpolationmode  none
attr source  messageAge(rcvdPk)
attr title  "delay, histogram"
attr unit  s
bin	-INF	0
bin	-9.9435960305605	0
bin	-8.6176572147768	0
bin	-7.2917183989932	0
bin	-5.9657795832095	0
bin	-4.6398407674258	0
bin	-3.3139019516422	0
bin	-1.9879631358585	0
bin	-0.66202432007483	223
bin	0.66391449570883	4
bin	1.9898533114925	3
bin	3.3157921272762	2
bin	4.6417309430598	2
bin	5.9676697588435	1
bin	7.2936085746272	1
bin	8.6195473904108	3
bin	9.9454862061945	4
bin	11.271425021978	2
bin	12.597363837762	2
bin	13.923302653546	1
bin	15.249241469329	2
bin	16.575180285113	1
bin	17.901119100897	4
bin	19.22705791668	2
bin	20.552996732464	0
bin	21.878935548247	0
bin	23.204874364031	0
bin	24.530813179815	0
bin	25.856751995598	0
bin	27.182690811382	0
bin	28.508629627166	0
bin	29.834568442949	0
scalar scenarioPRJP1.node[22].app 	sentPk:count 	2608
attr interpolationmode  none
attr source  sentPk
attr title  "packets sent, count"
scalar scenarioPRJP1.node[22].app 	sentPk:sum(packetBytes) 	1335296
attr interpolationmode  none
attr source  sentPk
attr title  "packets sent, sum(packetBytes)"
scalar scenarioPRJP1.node[22].udp 	droppedPkBadChecksum:count 	0
attr interpolationmode  none
attr title  "packets dropped (checksum error), count"
scalar scenarioPRJP1.node[22].udp 	droppedPkWrongPort:count 	0
attr interpolationmode  none
attr title  "packets dropped (wrong port), count"
scalar scenarioPRJP1.node[22].udp 	passedUpPk:count 	473
attr interpolationmode  none
attr title  "packets passed up, count"
scalar scenarioPRJP1.node[22].udp 	rcvdPk:count 	473
attr interpolationmode  none
attr source  rcvdPk
attr title  "packets received, count"
scalar scenarioPRJP1.node[22].udp 	rcvdPk:sum(packetBytes) 	245960
attr interpolationmode  none
attr source  rcvdPk
attr title  "packets received, sum(packetBytes)"
scalar scenarioPRJP1.node[22].udp 	sentPk:count 	2608
attr interpolationmode  none
attr source  sentPk
attr title  "packets sent, count"
scalar scenarioPRJP1.node[22].udp 	sentPk:sum(packetBytes) 	1356160
attr interpolationmode  none
attr source  sentPk
attr title  "packets sent, sum(packetBytes)"
scalar scenarioPRJP1.node[22].networkLayer.arp 	failedARPResolution:count 	3
attr title  "ARP failed resolutions, count"
scalar scenarioPRJP1.node[22].networkLayer.arp 	completedARPResolution:count 	239
attr title  "ARP completed resolutions, count"
scalar scenarioPRJP1.node[22].networkLayer.arp 	initiatedARPResolution:count 	36
attr title  "ARP initiated resolutions, count"
scalar scenarioPRJP1.node[22].networkLayer.arp 	sentReply:count 	49
attr title  "ARP replies sent, count"
scalar scenarioPRJP1.node[22].networkLayer.arp 	sentReq:count 	44
attr title  "ARP request sent, count"
scalar scenarioPRJP1.node[22].mobility 	startTime 	2.5
scalar scenarioPRJP1.node[22].mobility 	totalTime 	947.4
scalar scenarioPRJP1.node[22].mobility 	stopTime 	950
scalar scenarioPRJP1.node[22].mobility 	minSpeed 	2.4754624567407e-13
scalar scenarioPRJP1.node[22].mobility 	maxSpeed 	16.12553562562
scalar scenarioPRJP1.node[22].mobility 	totalDistance 	10362.669116223
scalar scenarioPRJP1.node[22].mobility 	totalCO2Emission 	2436.1771282882
scalar scenarioPRJP1.node[22].wlan[0].mgmt 	dataQueueLen:max 	33
attr interpolationmode  sample-hold
attr title  "data queue length, max"
scalar scenarioPRJP1.node[22].wlan[0].mgmt 	dataQueueLen:timeavg 	0
attr interpolationmode  sample-hold
attr title  "data queue length, timeavg"
scalar scenarioPRJP1.node[22].wlan[0].mgmt 	dropPkByQueue:count 	0
attr interpolationmode  none
attr source  dropPkByQueue
attr title  "packets dropped by queue, count"
scalar scenarioPRJP1.node[22].wlan[0].mgmt 	dropPkByQueue:sum(packetBytes) 	0
attr interpolationmode  none
attr source  dropPkByQueue
attr title  "packets dropped by queue, sum(packetBytes)"
scalar scenarioPRJP1.node[22].wlan[0].mac 	"number of received packets" 	4299
scalar scenarioPRJP1.node[22].wlan[0].mac 	"number of collisions" 	5745
scalar scenarioPRJP1.node[22].wlan[0].mac 	"number of internal collisions" 	0
scalar scenarioPRJP1.node[22].wlan[0].mac 	"number of retry for AC 0" 	5005
scalar scenarioPRJP1.node[22].wlan[0].mac 	"number of retry for AC 1" 	0
scalar scenarioPRJP1.node[22].wlan[0].mac 	"number of retry for AC 2" 	0
scalar scenarioPRJP1.node[22].wlan[0].mac 	"number of retry for AC 3" 	0
scalar scenarioPRJP1.node[22].wlan[0].mac 	"sent and received bits" 	9115328
scalar scenarioPRJP1.node[22].wlan[0].mac 	"sent packet within AC 0" 	626
scalar scenarioPRJP1.node[22].wlan[0].mac 	"sent packet within AC 1" 	0
scalar scenarioPRJP1.node[22].wlan[0].mac 	"sent packet within AC 2" 	0
scalar scenarioPRJP1.node[22].wlan[0].mac 	"sent packet within AC 3" 	0
scalar scenarioPRJP1.node[22].wlan[0].mac 	"sent in TXOP " 	0
scalar scenarioPRJP1.node[22].wlan[0].mac 	"sentWithoutRetry AC 0" 	594
scalar scenarioPRJP1.node[22].wlan[0].mac 	"sentWithoutRetry AC 1" 	0
scalar scenarioPRJP1.node[22].wlan[0].mac 	"sentWithoutRetry AC 2" 	0
scalar scenarioPRJP1.node[22].wlan[0].mac 	"sentWithoutRetry AC 3" 	0
scalar scenarioPRJP1.node[22].wlan[0].mac 	"numGivenUp AC 0" 	828
scalar scenarioPRJP1.node[22].wlan[0].mac 	"numGivenUp AC 1" 	0
scalar scenarioPRJP1.node[22].wlan[0].mac 	"numGivenUp AC 2" 	0
scalar scenarioPRJP1.node[22].wlan[0].mac 	"numGivenUp AC 3" 	0
scalar scenarioPRJP1.node[22].wlan[0].mac 	"numDropped AC 0" 	0
scalar scenarioPRJP1.node[22].wlan[0].mac 	"numDropped AC 1" 	0
scalar scenarioPRJP1.node[22].wlan[0].mac 	"numDropped AC 2" 	0
scalar scenarioPRJP1.node[22].wlan[0].mac 	"numDropped AC 3" 	0
scalar scenarioPRJP1.node[22].wlan[0].mac 	rcvdPkFromLL:count 	89720
attr interpolationmode  none
attr source  packetReceivedFromLower
attr title  "packets received from lower layer, count"
scalar scenarioPRJP1.node[22].wlan[0].mac 	rcvdPkFromLL:sum(packetBytes) 	17530950
attr interpolationmode  none
attr source  packetReceivedFromLower
attr title  "packets received from lower layer, sum(packetBytes)"
scalar scenarioPRJP1.node[22].wlan[0].mac 	sentDownPk:count 	20441
attr interpolationmode  none
attr source  packetSentToLower
attr title  "packets sent to lower layer, count"
scalar scenarioPRJP1.node[22].wlan[0].mac 	sentDownPk:sum(packetBytes) 	3931922
attr interpolationmode  none
attr source  packetSentToLower
attr title  "packets sent to lower layer, sum(packetBytes)"
scalar scenarioPRJP1.node[22].wlan[0].mac 	rcvdPkFromHL:count 	11137
[...]
attr source  packetSentToUpper
attr title  "packets passed to higher layer, sum(packetBytes)"
statistic scenarioPRJP1.node[19].wlan[0].radio 	radioChannel:histogram
field count 1
field mean 3
field stddev -nan
field sum 3
field sqrsum 9
field min 3
field max 3
attr interpolationmode  sample-hold
attr source  radioChannelChanged
attr title  "Radio channel, histogram"
bin	-INF	0
bin	2	0
bin	3	1
bin	4	0
scalar scenarioPRJP1.node[19].wlan[0].radio 	transmissionState:count 	67472
attr interpolationmode  sample-hold
attr source  transmissionStateChanged
attr title  "Radio transmission state, count"
scalar scenarioPRJP1.node[19].wlan[0].radio 	receptionState:count 	205459
attr interpolationmode  sample-hold
attr source  receptionStateChanged
attr title  "Radio reception state, count"
scalar scenarioPRJP1.node[19].wlan[0].radio 	radioMode:count 	33738
attr interpolationmode  sample-hold
attr source  radioModeChanged
attr title  "Radio mode, count"
statistic scenarioPRJP1.node[19].wlan[0].radio 	symbolErrorRate:histogram
field count 0
field mean -nan
field stddev -nan
field sum 0
field sqrsum 0
field min -nan
field max -nan
attr source  symbolErrorRate
attr title  "Symbol error rate, histogram"
bin	-INF	0
bin	-0.5	0
bin	-0.46666666666667	0
bin	-0.43333333333333	0
bin	-0.4	0
bin	-0.36666666666667	0
bin	-0.33333333333333	0
bin	-0.3	0
bin	-0.26666666666667	0
bin	-0.23333333333333	0
bin	-0.2	0
bin	-0.16666666666667	0
bin	-0.13333333333333	0
bin	-0.1	0
bin	-0.066666666666667	0
bin	-0.033333333333333	0
bin	0	0
bin	0.033333333333333	0
bin	0.066666666666667	0
bin	0.1	0
bin	0.13333333333333	0
bin	0.16666666666667	0
bin	0.2	0
bin	0.23333333333333	0
bin	0.26666666666667	0
bin	0.3	0
bin	0.33333333333333	0
bin	0.36666666666667	0
bin	0.4	0
bin	0.43333333333333	0
bin	0.46666666666667	0
bin	0.5	0
statistic scenarioPRJP1.node[19].wlan[0].radio 	bitErrorRate:histogram
field count 0
field mean -nan
field stddev -nan
field sum 0
field sqrsum 0
field min -nan
field max -nan
attr source  bitErrorRate
attr title  "Bit error rate, histogram"
bin	-INF	0
bin	-0.5	0
bin	-0.46666666666667	0
bin	-0.43333333333333	0
bin	-0.4	0
bin	-0.36666666666667	0
bin	-0.33333333333333	0
bin	-0.3	0
bin	-0.26666666666667	0
bin	-0.23333333333333	0
bin	-0.2	0
bin	-0.16666666666667	0
bin	-0.13333333333333	0
bin	-0.1	0
bin	-0.066666666666667	0
bin	-0.033333333333333	0
bin	0	0
bin	0.033333333333333	0
bin	0.066666666666667	0
bin	0.1	0
bin	0.13333333333333	0
bin	0.16666666666667	0
bin	0.2	0
bin	0.23333333333333	0
bin	0.26666666666667	0
bin	0.3	0
bin	0.33333333333333	0
bin	0.36666666666667	0
bin	0.4	0
bin	0.43333333333333	0
bin	0.46666666666667	0
bin	0.5	0
statistic scenarioPRJP1.node[19].wlan[0].radio 	packetErrorRate:histogram
field count 85561
field mean 0.052418151451226
field stddev 0.21698569595275
field sum 4484.9494563183
field sqrsum 4263.4964645999
field min 0
field max 1
attr source  packetErrorRate
attr title  "Packet error rate, histogram"
bin	-INF	0
bin	-0.5	0
bin	-0.43333333333333	0
bin	-0.36666666666667	0
bin	-0.3	0
bin	-0.23333333333333	0
bin	-0.16666666666667	0
bin	-0.1	0
bin	-0.033333333333333	80137
bin	0.033333333333333	424
bin	0.1	165
bin	0.16666666666667	126
bin	0.23333333333333	84
bin	0.3	90
bin	0.36666666666667	58
bin	0.43333333333333	82
bin	0.5	61
bin	0.56666666666667	60
bin	0.63333333333333	49
bin	0.7	55
bin	0.76666666666667	47
bin	0.83333333333333	64
bin	0.9	106
bin	0.96666666666667	3953
bin	1.0333333333333	0
bin	1.1	0
bin	1.1666666666667	0
bin	1.2333333333333	0
bin	1.3	0
bin	1.3666666666667	0
bin	1.4333333333333	0
bin	1.5	0
statistic scenarioPRJP1.node[19].wlan[0].radio 	minSNIR:histogram
field count 85561
field mean 13401.6790377
field stddev 76402.91934403
field sum 1146661060.1447
field sqrsum 5.1481564806497e+14
field min 0.00016805660956052
field max 1848932.0732648
attr source  minSNIR
attr title  "Min SNIR, histogram"
bin	-INF	0
bin	-115.83634114281	0
bin	-100.32113534778	0
bin	-84.805929552749	0
bin	-69.29072375772	0
bin	-53.77551796269	0
bin	-38.260312167661	0
bin	-22.745106372632	0
bin	-7.229900577603	13123
bin	8.2853052174262	11217
bin	23.800511012455	3932
bin	39.315716807484	1580
bin	54.830922602514	997
bin	70.346128397543	727
bin	85.861334192572	676
bin	101.3765399876	468
bin	116.89174578263	1696
bin	132.40695157766	3402
bin	147.92215737269	2696
bin	163.43736316772	2429
bin	178.95256896275	1687
bin	194.46777475778	1800
bin	209.98298055281	1525
bin	225.49818634783	1409
bin	241.01339214286	954
bin	256.52859793789	936
bin	272.04380373292	1038
bin	287.55900952795	820
bin	303.07421532298	643
bin	318.58942111801	691
bin	334.10462691304	561
bin	349.61983270807	30554
scalar scenarioPRJP1.node[19].lo0.lo 	droppedPkBitError:count 	0
attr interpolationmode  none
attr source  dropPkBitError
attr title  "packets dropped/bit error, count"
scalar scenarioPRJP1.node[19].lo0.lo 	droppedPkBitError:sum(packetBytes) 	0
attr interpolationmode  none
attr source  dropPkBitError
attr title  "packets dropped/bit error, sum(packetBytes)"
scalar scenarioPRJP1.node[19].lo0.lo 	rcvdPkFromHL:count 	0
attr interpolationmode  none
attr source  packetReceivedFromUpper
attr title  "packets received from higher layer, count"
scalar scenarioPRJP1.node[19].lo0.lo 	rcvdPkFromHL:sum(packetBytes) 	0
attr interpolationmode  none
attr source  packetReceivedFromUpper
attr title  "packets received from higher layer, sum(packetBytes)"
scalar scenarioPRJP1.node[19].lo0.lo 	passedUpPk:count 	0
attr interpolationmode  none
attr source  packetSentToUpper
attr title  "packets passed to higher layer, count"
scalar scenarioPRJP1.node[19].lo0.lo 	passedUpPk:sum(packetBytes) 	0
attr interpolationmode  none
attr source  packetSentToUpper
attr title  "packets passed to higher layer, sum(packetBytes)"
scalar scenarioPRJP1.node[39].app 	"Total sent" 	2599
scalar scenarioPRJP1.node[39].app 	"Total received" 	152
scalar scenarioPRJP1.node[39].app 	"Total deleted" 	152
scalar scenarioPRJP1.node[39].app 	dropPk:count 	152
attr interpolationmode  none
attr source  dropPk
attr title  "packets dropped, count"
scalar scenarioPRJP1.node[39].app 	dropPk:sum(packetBytes) 	77824
attr interpolationmode  none
attr source  dropPk
attr title  "packets dropped, sum(packetBytes)"
scalar scenarioPRJP1.node[39].app 	outOfOrderPk:count 	30
attr interpolationmode  none
attr source  outOfOrderPk
attr title  "packets received out of order, count"
scalar scenarioPRJP1.node[39].app 	outOfOrderPk:sum(packetBytes) 	15360
attr interpolationmode  none
attr source  outOfOrderPk
attr title  "packets received out of order, sum(packetBytes)"
scalar scenarioPRJP1.node[39].app 	rcvdPk:count 	152
attr interpolationmode  none
attr source  rcvdPk
attr title  "packets received, count"
scalar scenarioPRJP1.node[39].app 	rcvdPk:sum(packetBytes) 	77824
attr interpolationmode  none
attr source  rcvdPk
attr title  "packets received, sum(packetBytes)"
statistic scenarioPRJP1.node[39].app 	endToEndDelay:histogram
field count 152
field mean 1.642146243373
field stddev 4.2872996603613
field sum 249.6062289927
field sqrsum 3185.4116263008
field min 0.000945026272
field max 19.464893897842
attr interpolationmode  none
attr source  messageAge(rcvdPk)
attr title  "delay, histogram"
attr unit  s
bin	-INF	0
bin	-9.731029409513	0
bin	-8.433432818075	0
bin	-7.135836226637	0
bin	-5.838239635199	0
bin	-4.540643043761	0
bin	-3.243046452323	0
bin	-1.945449860885	0
bin	-0.647853269447	128
bin	0.649743321991	2
bin	1.947339913429	1
bin	3.244936504867	0
bin	4.542533096305	2
bin	5.840129687743	2
bin	7.137726279181	2
bin	8.435322870619	2
bin	9.732919462057	2
bin	11.030516053495	3
bin	12.328112644933	3
bin	13.625709236371	0
bin	14.923305827809	1
bin	16.220902419247	1
bin	17.518499010685	2
bin	18.816095602123	1
bin	20.113692193561	0
bin	21.411288784999	0
bin	22.708885376437	0
bin	24.006481967875	0
bin	25.304078559313	0
bin	26.601675150751	0
bin	27.899271742189	0
bin	29.196868333627	0
scalar scenarioPRJP1.node[39].app 	sentPk:count 	2599
attr interpolationmode  none
attr source  sentPk
attr title  "packets sent, count"
scalar scenarioPRJP1.node[39].app 	sentPk:sum(packetBytes) 	1330688
attr interpolationmode  none
attr source  sentPk
attr title  "packets sent, sum(packetBytes)"
scalar scenarioPRJP1.node[39].udp 	droppedPkBadChecksum:count 	0
attr interpolationmode  none
attr title  "packets dropped (checksum error), count"
scalar scenarioPRJP1.node[39].udp 	droppedPkWrongPort:count 	0
attr interpolationmode  none
attr title  "packets dropped (wrong port), count"
scalar scenarioPRJP1.node[39].udp 	passedUpPk:count 	334
attr interpolationmode  none
attr title  "packets passed up, count"
scalar scenarioPRJP1.node[39].udp 	rcvdPk:count 	334
attr interpolationmode  none
attr source  rcvdPk
attr title  "packets received, count"
scalar scenarioPRJP1.node[39].udp 	rcvdPk:sum(packetBytes) 	173680
attr interpolationmode  none
attr source  rcvdPk
attr title  "packets received, sum(packetBytes)"
scalar scenarioPRJP1.node[39].udp 	sentPk:count 	2599
attr interpolationmode  none
attr source  sentPk
attr title  "packets sent, count"
scalar scenarioPRJP1.node[39].udp 	sentPk:sum(packetBytes) 	1351480
attr interpolationmode  none
attr source  sentPk
attr title  "packets sent, sum(packetBytes)"
scalar scenarioPRJP1.node[39].networkLayer.arp 	failedARPResolution:count 	14
attr title  "ARP failed resolutions, count"
scalar scenarioPRJP1.node[39].networkLayer.arp 	completedARPResolution:count 	171
attr title  "ARP completed resolutions, count"
scalar scenarioPRJP1.node[39].networkLayer.arp 	initiatedARPResolution:count 	48
attr title  "ARP initiated resolutions, count"
scalar scenarioPRJP1.node[39].networkLayer.arp 	sentReply:count 	38
attr title  "ARP replies sent, count"
scalar scenarioPRJP1.node[39].networkLayer.arp 	sentReq:count 	81
attr title  "ARP request sent, count"
scalar scenarioPRJP1.node[39].mobility 	startTime 	2.5
scalar scenarioPRJP1.node[39].mobility 	totalTime 	947.4
scalar scenarioPRJP1.node[39].mobility 	stopTime 	950
scalar scenarioPRJP1.node[39].mobility 	minSpeed 	2.4755883566712e-13
scalar scenarioPRJP1.node[39].mobility 	maxSpeed 	19.885672963072
scalar scenarioPRJP1.node[39].mobility 	totalDistance 	10378.113543161
scalar scenarioPRJP1.node[39].mobility 	totalCO2Emission 	2700.0280146546
scalar scenarioPRJP1.node[39].wlan[0].mgmt 	dataQueueLen:max 	26
attr interpolationmode  sample-hold
attr title  "data queue length, max"
scalar scenarioPRJP1.node[39].wlan[0].mgmt 	dataQueueLen:timeavg 	0
attr interpolationmode  sample-hold
attr title  "data queue length, timeavg"
scalar scenarioPRJP1.node[39].wlan[0].mgmt 	dropPkByQueue:count 	0
attr interpolationmode  none
attr source  dropPkByQueue
attr title  "packets dropped by queue, count"
scalar scenarioPRJP1.node[39].wlan[0].mgmt 	dropPkByQueue:sum(packetBytes) 	0
attr interpolationmode  none
attr source  dropPkByQueue
attr title  "packets dropped by queue, sum(packetBytes)"
scalar scenarioPRJP1.node[39].wlan[0].mac 	"number of received packets" 	3638
scalar scenarioPRJP1.node[39].wlan[0].mac 	"number of collisions" 	4122
scalar scenarioPRJP1.node[39].wlan[0].mac 	"number of internal collisions" 	0
scalar scenarioPRJP1.node[39].wlan[0].mac 	"number of retry for AC 0" 	4174
scalar scenarioPRJP1.node[39].wlan[0].mac 	"number of retry for AC 1" 	0
scalar scenarioPRJP1.node[39].wlan[0].mac 	"number of retry for AC 2" 	0
scalar scenarioPRJP1.node[39].wlan[0].mac 	"number of retry for AC 3" 	0
scalar scenarioPRJP1.node[39].wlan[0].mac 	"sent and received bits" 	7976832
scalar scenarioPRJP1.node[39].wlan[0].mac 	"sent packet within AC 0" 	504
scalar scenarioPRJP1.node[39].wlan[0].mac 	"sent packet within AC 1" 	0
scalar scenarioPRJP1.node[39].wlan[0].mac 	"sent packet within AC 2" 	0
scalar scenarioPRJP1.node[39].wlan[0].mac 	"sent packet within AC 3" 	0
scalar scenarioPRJP1.node[39].wlan[0].mac 	"sent in TXOP " 	0
scalar scenarioPRJP1.node[39].wlan[0].mac 	"sentWithoutRetry AC 0" 	463
scalar scenarioPRJP1.node[39].wlan[0].mac 	"sentWithoutRetry AC 1" 	0
scalar scenarioPRJP1.node[39].wlan[0].mac 	"sentWithoutRetry AC 2" 	0
scalar scenarioPRJP1.node[39].wlan[0].mac 	"sentWithoutRetry AC 3" 	0
scalar scenarioPRJP1.node[39].wlan[0].mac 	"numGivenUp AC 0" 	681
scalar scenarioPRJP1.node[39].wlan[0].mac 	"numGivenUp AC 1" 	0
scalar scenarioPRJP1.node[39].wlan[0].mac 	"numGivenUp AC 2" 	0
scalar scenarioPRJP1.node[39].wlan[0].mac 	"numGivenUp AC 3" 	0
scalar scenarioPRJP1.node[39].wlan[0].mac 	"numDropped AC 0" 	0
scalar scenarioPRJP1.node[39].wlan[0].mac 	"numDropped AC 1" 	0
scalar scenarioPRJP1.node[39].wlan[0].mac 	"numDropped AC 2" 	0
scalar scenarioPRJP1.node[39].wlan[0].mac 	"numDropped AC 3" 	0
scalar scenarioPRJP1.node[39].wlan[0].mac 	rcvdPkFromLL:count 	77628
attr interpolationmode  none
attr source  packetReceivedFromLower
attr title  "packets received from lower layer, count"
scalar scenarioPRJP1.node[39].wlan[0].mac 	rcvdPkFromLL:sum(packetBytes) 	13129270
attr interpolationmode  none
attr source  packetReceivedFromLower
attr title  "packets received from lower layer, sum(packetBytes)"
scalar scenarioPRJP1.node[39].wlan[0].mac 	sentDownPk:count 	17384
attr interpolationmode  none
attr source  packetSentToLower
attr title  "packets sent to lower layer, count"
scalar scenarioPRJP1.node[39].wlan[0].mac 	sentDownPk:sum(packetBytes) 	3417760
attr interpolationmode  none
attr source  packetSentToLower
attr title  "packets sent to lower layer, sum(packetBytes)"
scalar scenarioPRJP1.node[39].wlan[0].mac 	rcvdPkFromHL:count 	9572
attr interpolationmode  none
attr source  packetReceivedFromUpper
attr title  "packets received from higher layer, count"
scalar scenarioPRJP1.node[39].wlan[0].mac 	rcvdPkFromHL:sum(packetBytes) 	1328676
attr interpolationmode  none
attr source  packetReceivedFromUpper
attr title  "packets received from higher layer, sum(packetBytes)"
scalar scenarioPRJP1.node[39].wlan[0].mac 	passedUpPk:count 	27371
attr interpolationmode  none
attr source  packetSentToUpper
attr title  "packets passed to higher layer, count"
scalar scenarioPRJP1.node[39].wlan[0].mac 	passedUpPk:sum(packetBytes) 	2826420
attr interpolationmode  none
attr source  packetSentToUpper
attr title  "packets passed to higher layer, sum(packetBytes)"
statistic scenarioPRJP1.node[39].wlan[0].radio 	radioChannel:histogram
field count 1
field mean 3
field stddev -nan
field sum 3
field sqrsum 9
field min 3
field max 3
attr interpolationmode  sample-hold
attr source  radioChannelChanged
attr title  "Radio channel, histogram"
bin	-INF	0
bin	2	0
bin	3	1
bin	4	0
scalar scenarioPRJP1.node[39].wlan[0].radio 	transmissionState:count 	69536
attr interpolationmode  sample-hold
attr source  transmissionStateChanged
attr title  "Radio transmission state, count"
scalar scenarioPRJP1.node[39].wlan[0].radio 	receptionState:count 	190574
attr interpolationmode  sample-hold
attr source  receptionStateChanged
attr title  "Radio reception state, count"
scalar scenarioPRJP1.node[39].wlan[0].radio 	radioMode:count 	34770
attr interpolationmode  sample-hold
attr source  radioModeChanged
attr title  "Radio mode, count"
statistic scenarioPRJP1.node[39].wlan[0].radio 	symbolErrorRate:histogram
field count 0
field mean -nan
field stddev -nan
field sum 0
field sqrsum 0
field min -nan
field max -nan
attr source  symbolErrorRate
attr title  "Symbol error rate, histogram"
bin	-INF	0
bin	-0.5	0
bin	-0.46666666666667	0
bin	-0.43333333333333	0
bin	-0.4	0
bin	-0.36666666666667	0
bin	-0.33333333333333	0
bin	-0.3	0
bin	-0.26666666666667	0
bin	-0.23333333333333	0
bin	-0.2	0
bin	-0.16666666666667	0
bin	-0.13333333333333	0
bin	-0.1	0
bin	-0.066666666666667	0
bin	-0.033333333333333	0
bin	0	0
bin	0.033333333333333	0
bin	0.066666666666667	0
bin	0.1	0
bin	0.13333333333333	0
bin	0.16666666666667	0
bin	0.2	0
bin	0.23333333333333	0
bin	0.26666666666667	0
bin	0.3	0
bin	0.33333333333333	0
bin	0.36666666666667	0
bin	0.4	0
bin	0.43333333333333	0
bin	0.46666666666667	0
bin	0.5	0
statistic scenarioPRJP1.node[39].wlan[0].radio 	bitErrorRate:histogram
field count 0
field mean -nan
field stddev -nan
field sum 0
field sqrsum 0
field min -nan
field max -nan
attr source  bitErrorRate
attr title  "Bit error rate, histogram"
bin	-INF	0
bin	-0.5	0
bin	-0.46666666666667	0
bin	-0.43333333333333	0
bin	-0.4	0
bin	-0.36666666666667	0
bin	-0.33333333333333	0
bin	-0.3	0
bin	-0.26666666666667	0
bin	-0.23333333333333	0
bin	-0.2	0
bin	-0.16666666666667	0
bin	-0.13333333333333	0
bin	-0.1	0
bin	-0.066666666666667	0
bin	-0.033333333333333	0
bin	0	0
bin	0.033333333333333	0
bin	0.066666666666667	0
bin	0.1	0
bin	0.13333333333333	0
bin	0.16666666666667	0
bin	0.2	0
bin	0.23333333333333	0
bin	0.26666666666667	0
bin	0.3	0
bin	0.33333333333333	0
bin	0.36666666666667	0
bin	0.4	0
bin	0.43333333333333	0
bin	0.46666666666667	0
bin	0.5	0
statistic scenarioPRJP1.node[39].wlan[0].radio 	packetErrorRate:histogram
field count 77628
field mean 0.047105955565816
field stddev 0.20680198212023
field sum 3656.7411186632
field sqrsum 3492.1328364335
field min 0
field max 1
attr source  packetErrorRate
attr title  "Packet error rate, histogram"
bin	-INF	0
bin	-0.49999999999184	0
bin	-0.43333333332626	0
bin	-0.36666666666068	0
bin	-0.29999999999511	0
bin	-0.23333333332953	0
bin	-0.16666666666395	0
bin	-0.099999999998368	0
bin	-0.03333333333279	73270
bin	0.033333333332789	340
bin	0.099999999998368	127
bin	0.16666666666395	88
bin	0.23333333332953	55
bin	0.29999999999511	41
bin	0.36666666666068	57
bin	0.43333333332626	38
bin	0.49999999999184	41
bin	0.56666666665742	50
bin	0.633333333323	28
bin	0.69999999998858	48
bin	0.76666666665416	59
bin	0.83333333331974	74
bin	0.89999999998532	93
bin	0.96666666665089	3219
bin	1.0333333333165	0
bin	1.0999999999821	0
bin	1.1666666666476	0
bin	1.2333333333132	0
bin	1.2999999999788	0
bin	1.3666666666444	0
bin	1.4333333333099	0
bin	1.4999999999755	0
statistic scenarioPRJP1.node[39].wlan[0].radio 	minSNIR:histogram
field count 77628
field mean 10636.641447305
field stddev 65081.059941024
field sum 825701202.27137
field sqrsum 3.3757528990143e+14
field min 0.00024110139820689
field max 4938297.5270992
attr source  minSNIR
attr title  "Min SNIR, histogram"
bin	-INF	0
bin	-114.72890077935	0
bin	-99.236738732145	0
bin	-83.744576684937	0
bin	-68.25241463773	0
bin	-52.760252590523	0
bin	-37.268090543316	0
bin	-21.775928496109	0
bin	-6.2837664489022	11479
bin	9.2083955983049	8042
bin	24.700557645512	2937
bin	40.192719692719	1539
bin	55.684881739926	845
bin	71.177043787133	638
bin	86.66920583434	477
bin	102.16136788155	445
bin	117.65352992875	1892
bin	133.14569197596	2715
bin	148.63785402317	1995
bin	164.13001607038	2158
bin	179.62217811758	2434
bin	195.11434016479	1590
bin	210.606502212	995
bin	226.0986642592	883
bin	241.59082630641	912
bin	257.08298835362	873
bin	272.57515040082	802
bin	288.06731244803	853
bin	303.55947449524	742
bin	319.05163654245	783
bin	334.54379858965	666
bin	350.03596063686	30933
scalar scenarioPRJP1.node[39].lo0.lo 	droppedPkBitError:count 	0
attr interpolationmode  none
attr source  dropPkBitError
attr title  "packets dropped/bit error, count"
scalar scenarioPRJP1.node[39].lo0.lo 	droppedPkBitError:sum(packetBytes) 	0
attr interpolationmode  none
attr source  dropPkBitError
attr title  "packets dropped/bit error, sum(packetBytes)"
scalar scenarioPRJP1.node[39].lo0.lo 	rcvdPkFromHL:count 	0
attr interpolationmode  none
attr source  packetReceivedFromUpper
attr title  "packets received from higher layer, count"
scalar scenarioPRJP1.node[39].lo0.lo 	rcvdPkFromHL:sum(packetBytes) 	0
attr interpolationmode  none
attr source  packetReceivedFromUpper
attr title  "packets received from higher layer, sum(packetBytes)"
scalar scenarioPRJP1.node[39].lo0.lo 	passedUpPk:count 	0
attr interpolationmode  none
attr source  packetSentToUpper
attr title  "packets passed to higher layer, count"
scalar scenarioPRJP1.node[39].lo0.lo 	passedUpPk:sum(packetBytes) 	0
attr interpolationmode  none
attr source  packetSentToUpper
attr title  "packets passed to higher layer, sum(packetBytes)"
