version 2
run OLSR-ETX-FS-75n-15-20150616-02:05:09-24065
attr configname OLSR-ETX-FS-75n
attr datetime 20150616-02:05:09
attr experiment OLSR-ETX-FS-75n
attr inifile omnetpp.ini
attr iterationvars ""
attr iterationvars2 $repetition=15
attr measurement ""
attr network Prj_Part1_propag.scenarioPRJP1
attr processid 24065
attr repetition 15
attr replication #15
attr resultdir results
attr runnumber 15
attr seedset 15

scalar scenarioPRJP1.node[72].app 	"Total sent" 	4627
scalar scenarioPRJP1.node[72].app 	"Total received" 	402
scalar scenarioPRJP1.node[72].app 	"Total deleted" 	0
scalar scenarioPRJP1.node[72].app 	dropPk:count 	0
attr interpolationmode  none
attr source  dropPk
attr title  "packets dropped, count"
scalar scenarioPRJP1.node[72].app 	dropPk:sum(packetBytes) 	0
attr interpolationmode  none
attr source  dropPk
attr title  "packets dropped, sum(packetBytes)"
scalar scenarioPRJP1.node[72].app 	outOfOrderPk:count 	0
attr interpolationmode  none
attr source  outOfOrderPk
attr title  "packets received out of order, count"
scalar scenarioPRJP1.node[72].app 	outOfOrderPk:sum(packetBytes) 	0
attr interpolationmode  none
attr source  outOfOrderPk
attr title  "packets received out of order, sum(packetBytes)"
scalar scenarioPRJP1.node[72].app 	rcvdPk:count 	402
attr interpolationmode  none
attr source  rcvdPk
attr title  "packets received, count"
scalar scenarioPRJP1.node[72].app 	rcvdPk:sum(packetBytes) 	205824
attr interpolationmode  none
attr source  rcvdPk
attr title  "packets received, sum(packetBytes)"
statistic scenarioPRJP1.node[72].app 	endToEndDelay:histogram
field count 402
field mean 0.065271865221905
field stddev 0.22224734674061
field sum 26.239289819206
field sqrsum 21.519634525028
field min 0.00089108588
field max 2.001921289174
attr interpolationmode  none
attr source  messageAge(rcvdPk)
attr title  "delay, histogram"
attr unit  s
bin	-INF	0
bin	-0.6248891197455	0
bin	-0.5414517308269	0
bin	-0.4580143419083	0
bin	-0.3745769529897	0
bin	-0.2911395640711	0
bin	-0.2077021751525	0
bin	-0.1242647862339	0
bin	-0.0408273973153	332
bin	0.0426099916033	48
bin	0.1260473805219	0
bin	0.2094847694405	1
bin	0.2929221583591	2
bin	0.3763595472777	1
bin	0.4597969361963	1
bin	0.5432343251149	0
bin	0.6266717140335	0
bin	0.7101091029521	2
bin	0.7935464918707	0
bin	0.8769838807893	0
bin	0.9604212697079	8
bin	1.0438586586265	5
bin	1.1272960475451	0
bin	1.2107334364637	1
bin	1.2941708253823	0
bin	1.3776082143009	0
bin	1.4610456032195	0
bin	1.5444829921381	0
bin	1.6279203810567	0
bin	1.7113577699753	0
bin	1.7947951588939	0
bin	1.8782325478125	1
scalar scenarioPRJP1.node[72].app 	sentPk:count 	4627
attr interpolationmode  none
attr source  sentPk
attr title  "packets sent, count"
scalar scenarioPRJP1.node[72].app 	sentPk:sum(packetBytes) 	2369024
attr interpolationmode  none
attr source  sentPk
attr title  "packets sent, sum(packetBytes)"
scalar scenarioPRJP1.node[72].udp 	droppedPkBadChecksum:count 	0
attr interpolationmode  none
attr title  "packets dropped (checksum error), count"
scalar scenarioPRJP1.node[72].udp 	droppedPkWrongPort:count 	0
attr interpolationmode  none
attr title  "packets dropped (wrong port), count"
scalar scenarioPRJP1.node[72].udp 	passedUpPk:count 	402
attr interpolationmode  none
attr title  "packets passed up, count"
scalar scenarioPRJP1.node[72].udp 	rcvdPk:count 	402
attr interpolationmode  none
attr source  rcvdPk
attr title  "packets received, count"
scalar scenarioPRJP1.node[72].udp 	rcvdPk:sum(packetBytes) 	209040
attr interpolationmode  none
attr source  rcvdPk
attr title  "packets received, sum(packetBytes)"
scalar scenarioPRJP1.node[72].udp 	sentPk:count 	4627
attr interpolationmode  none
attr source  sentPk
attr title  "packets sent, count"
scalar scenarioPRJP1.node[72].udp 	sentPk:sum(packetBytes) 	2406040
attr interpolationmode  none
attr source  sentPk
attr title  "packets sent, sum(packetBytes)"
scalar scenarioPRJP1.node[72].networkLayer.arp 	failedARPResolution:count 	15
attr title  "ARP failed resolutions, count"
scalar scenarioPRJP1.node[72].networkLayer.arp 	completedARPResolution:count 	873
attr title  "ARP completed resolutions, count"
scalar scenarioPRJP1.node[72].networkLayer.arp 	initiatedARPResolution:count 	119
attr title  "ARP initiated resolutions, count"
scalar scenarioPRJP1.node[72].networkLayer.arp 	sentReply:count 	79
attr title  "ARP replies sent, count"
scalar scenarioPRJP1.node[72].networkLayer.arp 	sentReq:count 	205
attr title  "ARP request sent, count"
scalar scenarioPRJP1.node[72].mobility 	startTime 	7.4
scalar scenarioPRJP1.node[72].mobility 	totalTime 	1654.9
scalar scenarioPRJP1.node[72].mobility 	stopTime 	1662.4
scalar scenarioPRJP1.node[72].mobility 	minSpeed 	2.4757120222634e-13
scalar scenarioPRJP1.node[72].mobility 	maxSpeed 	16.763767335846
scalar scenarioPRJP1.node[72].mobility 	totalDistance 	18207.612667641
scalar scenarioPRJP1.node[72].mobility 	totalCO2Emission 	4459.0317074407
scalar scenarioPRJP1.node[72].wlan.mgmt 	dataQueueLen:max 	9
attr interpolationmode  sample-hold
attr title  "data queue length, max"
scalar scenarioPRJP1.node[72].wlan.mgmt 	dataQueueLen:timeavg 	0
attr interpolationmode  sample-hold
attr title  "data queue length, timeavg"
scalar scenarioPRJP1.node[72].wlan.mgmt 	dropPkByQueue:count 	0
attr interpolationmode  none
attr source  dropPkByQueue
attr title  "packets dropped by queue, count"
scalar scenarioPRJP1.node[72].wlan.mgmt 	dropPkByQueue:sum(packetBytes) 	0
attr interpolationmode  none
attr source  dropPkByQueue
attr title  "packets dropped by queue, sum(packetBytes)"
scalar scenarioPRJP1.node[72].wlan.mac 	"number of received packets" 	2393
scalar scenarioPRJP1.node[72].wlan.mac 	"number of collisions" 	21499
scalar scenarioPRJP1.node[72].wlan.mac 	"number of internal collisions" 	1
scalar scenarioPRJP1.node[72].wlan.mac 	"number of retry for AC 0" 	6110
scalar scenarioPRJP1.node[72].wlan.mac 	"number of retry for AC 1" 	13
scalar scenarioPRJP1.node[72].wlan.mac 	"number of retry for AC 2" 	0
scalar scenarioPRJP1.node[72].wlan.mac 	"number of retry for AC 3" 	0
scalar scenarioPRJP1.node[72].wlan.mac 	"sent and received bits" 	57154016
scalar scenarioPRJP1.node[72].wlan.mac 	"sent packet within AC 0" 	2125
scalar scenarioPRJP1.node[72].wlan.mac 	"sent packet within AC 1" 	111
scalar scenarioPRJP1.node[72].wlan.mac 	"sent packet within AC 2" 	0
scalar scenarioPRJP1.node[72].wlan.mac 	"sent packet within AC 3" 	0
scalar scenarioPRJP1.node[72].wlan.mac 	"sent in TXOP " 	0
scalar scenarioPRJP1.node[72].wlan.mac 	"sentWithoutRetry AC 0" 	1685
scalar scenarioPRJP1.node[72].wlan.mac 	"sentWithoutRetry AC 1" 	110
scalar scenarioPRJP1.node[72].wlan.mac 	"sentWithoutRetry AC 2" 	0
scalar scenarioPRJP1.node[72].wlan.mac 	"sentWithoutRetry AC 3" 	0
scalar scenarioPRJP1.node[72].wlan.mac 	"numGivenUp AC 0" 	793
scalar scenarioPRJP1.node[72].wlan.mac 	"numGivenUp AC 1" 	2
scalar scenarioPRJP1.node[72].wlan.mac 	"numGivenUp AC 2" 	0
scalar scenarioPRJP1.node[72].wlan.mac 	"numGivenUp AC 3" 	0
scalar scenarioPRJP1.node[72].wlan.mac 	"numDropped AC 0" 	0
scalar scenarioPRJP1.node[72].wlan.mac 	"numDropped AC 1" 	0
scalar scenarioPRJP1.node[72].wlan.mac 	"numDropped AC 2" 	0
scalar scenarioPRJP1.node[72].wlan.mac 	"numDropped AC 3" 	0
scalar scenarioPRJP1.node[72].wlan.mac 	rcvdPkFromLL:count 	93850
attr interpolationmode  none
attr source  packetReceivedFromLower
attr title  "packets received from lower layer, count"
scalar scenarioPRJP1.node[72].wlan.mac 	rcvdPkFromLL:sum(packetBytes) 	59434214
attr interpolationmode  none
attr source  packetReceivedFromLower
attr title  "packets received from lower layer, sum(packetBytes)"
scalar scenarioPRJP1.node[72].wlan.mac 	sentDownPk:count 	17451
attr interpolationmode  none
attr source  packetSentToLower
attr title  "packets sent to lower layer, count"
scalar scenarioPRJP1.node[72].wlan.mac 	sentDownPk:sum(packetBytes) 	11118846
attr interpolationmode  none
attr source  packetSentToLower
attr title  "packets sent to lower layer, sum(packetBytes)"
scalar scenarioPRJP1.node[72].wlan.mac 	rcvdPkFromHL:count 	8936
attr interpolationmode  none
attr source  packetReceivedFromUpper
attr title  "packets received from higher layer, count"
scalar scenarioPRJP1.node[72].wlan.mac 	rcvdPkFromHL:sum(packetBytes) 	7600692
attr interpolationmode  none
attr source  packetReceivedFromUpper
attr title  "packets received from higher layer, sum(packetBytes)"
scalar scenarioPRJP1.node[72].wlan.mac 	passedUpPk:count 	31566
attr interpolationmode  none
attr source  packetSentToUpper
attr title  "packets passed to higher layer, count"
scalar scenarioPRJP1.node[72].wlan.mac 	passedUpPk:sum(packetBytes) 	30781340
attr interpolationmode  none
attr source  packetSentToUpper
attr title  "packets passed to higher layer, sum(packetBytes)"
statistic scenarioPRJP1.node[72].wlan.radio 	radioChannel:histogram
field count 1
field mean 3
field stddev -nan
field sum 3
field sqrsum 9
field min 3
field max 3
attr interpolationmode  sample-hold
attr source  radioChannelChanged
attr title  "Radio channel, histogram"
bin	-INF	0
bin	2	0
bin	3	1
bin	4	0
scalar scenarioPRJP1.node[72].wlan.radio 	transmissionState:count 	69804
attr interpolationmode  sample-hold
attr source  transmissionStateChanged
attr title  "Radio transmission state, count"
scalar scenarioPRJP1.node[72].wlan.radio 	receptionState:count 	440625
attr interpolationmode  sample-hold
attr source  receptionStateChanged
attr title  "Radio reception state, count"
scalar scenarioPRJP1.node[72].wlan.radio 	radioMode:count 	34904
attr interpolationmode  sample-hold
attr source  radioModeChanged
attr title  "Radio mode, count"
statistic scenarioPRJP1.node[72].wlan.radio 	symbolErrorRate:histogram
field count 0
field mean -nan
field stddev -nan
field sum 0
field sqrsum 0
field min -nan
field max -nan
attr source  symbolErrorRate
attr title  "Symbol error rate, histogram"
bin	-INF	0
bin	-0.5	0
bin	-0.46666666666667	0
bin	-0.43333333333333	0
bin	-0.4	0
bin	-0.36666666666667	0
bin	-0.33333333333333	0
bin	-0.3	0
bin	-0.26666666666667	0
bin	-0.23333333333333	0
bin	-0.2	0
bin	-0.16666666666667	0
bin	-0.13333333333333	0
bin	-0.1	0
bin	-0.066666666666667	0
bin	-0.033333333333333	0
bin	0	0
bin	0.033333333333333	0
bin	0.066666666666667	0
bin	0.1	0
bin	0.13333333333333	0
bin	0.16666666666667	0
bin	0.2	0
bin	0.23333333333333	0
bin	0.26666666666667	0
bin	0.3	0
bin	0.33333333333333	0
bin	0.36666666666667	0
bin	0.4	0
bin	0.43333333333333	0
bin	0.46666666666667	0
bin	0.5	0
statistic scenarioPRJP1.node[72].wlan.radio 	bitErrorRate:histogram
field count 0
field mean -nan
field stddev -nan
field sum 0
field sqrsum 0
field min -nan
field max -nan
attr source  bitErrorRate
attr title  "Bit error rate, histogram"
bin	-INF	0
bin	-0.5	0
bin	-0.46666666666667	0
bin	-0.43333333333333	0
bin	-0.4	0
bin	-0.36666666666667	0
bin	-0.33333333333333	0
bin	-0.3	0
bin	-0.26666666666667	0
bin	-0.23333333333333	0
bin	-0.2	0
bin	-0.16666666666667	0
bin	-0.13333333333333	0
bin	-0.1	0
bin	-0.066666666666667	0
bin	-0.033333333333333	0
bin	0	0
bin	0.033333333333333	0
bin	0.066666666666667	0
bin	0.1	0
bin	0.13333333333333	0
bin	0.16666666666667	0
bin	0.2	0
bin	0.23333333333333	0
bin	0.26666666666667	0
bin	0.3	0
bin	0.33333333333333	0
bin	0.36666666666667	0
bin	0.4	0
bin	0.43333333333333	0
bin	0.46666666666667	0
bin	0.5	0
statistic scenarioPRJP1.node[72].wlan.radio 	packetErrorRate:histogram
field count 93850
field mean 0.21697970188672
field stddev 0.40261154457527
field sum 20363.545022069
field sqrsum 19631.028671392
field min 0
field max 1
attr source  packetErrorRate
attr title  "Packet error rate, histogram"
bin	-INF	0
bin	-0.5	0
bin	-0.46666666666667	0
bin	-0.43333333333333	0
bin	-0.4	0
bin	-0.36666666666667	0
bin	-0.33333333333333	0
bin	-0.3	0
bin	-0.26666666666667	0
bin	-0.23333333333333	0
bin	-0.2	0
bin	-0.16666666666667	0
bin	-0.13333333333333	0
bin	-0.1	0
bin	-0.066666666666667	0
bin	-0.033333333333333	0
bin	0	70573
bin	0.033333333333333	717
bin	0.066666666666667	420
bin	0.1	332
bin	0.13333333333333	222
bin	0.16666666666667	210
bin	0.2	189
bin	0.23333333333333	182
bin	0.26666666666667	149
bin	0.3	130
bin	0.33333333333333	116
bin	0.36666666666667	119
bin	0.4	119
bin	0.43333333333333	109
bin	0.46666666666667	95
bin	0.5	20168
statistic scenarioPRJP1.node[72].wlan.radio 	minSNIR:histogram
field count 93850
field mean 9106.3794988996
field stddev 127279.20281368
field sum 854633715.97173
field sqrsum 1.5281359937097e+15
field min 0.00013949949893081
field max 7481298.773489
attr source  minSNIR
attr title  "Min SNIR, histogram"
bin	-INF	0
bin	-63731.494240696	0
bin	-55232.068878443	0
bin	-46732.64351619	0
bin	-38233.218153937	0
bin	-29733.792791684	0
bin	-21234.367429431	0
bin	-12734.942067179	0
bin	-4235.5167049256	87933
bin	4263.9086573273	2307
bin	12763.33401958	846
bin	21262.759381833	367
bin	29762.184744086	229
bin	38261.610106339	193
bin	46761.035468592	330
bin	55260.460830845	160
bin	63759.886193098	89
bin	72259.311555351	106
bin	80758.736917604	208
bin	89258.162279857	163
bin	97757.587642109	79
bin	106257.01300436	57
bin	114756.43836662	55
bin	123255.86372887	43
bin	131755.28909112	23
bin	140254.71445337	23
bin	148754.13981563	31
bin	157253.56517788	31
bin	165752.99054013	23
bin	174252.41590239	13
bin	182751.84126464	23
bin	191251.26662689	518
scalar scenarioPRJP1.node[72].lo0.lo 	droppedPkBitError:count 	0
attr interpolationmode  none
attr source  dropPkBitError
attr title  "packets dropped/bit error, count"
scalar scenarioPRJP1.node[72].lo0.lo 	droppedPkBitError:sum(packetBytes) 	0
attr interpolationmode  none
attr source  dropPkBitError
attr title  "packets dropped/bit error, sum(packetBytes)"
scalar scenarioPRJP1.node[72].lo0.lo 	rcvdPkFromHL:count 	13
attr interpolationmode  none
attr source  packetReceivedFromUpper
attr title  "packets received from higher layer, count"
scalar scenarioPRJP1.node[72].lo0.lo 	rcvdPkFromHL:sum(packetBytes) 	728
attr interpolationmode  none
attr source  packetReceivedFromUpper
attr title  "packets received from higher layer, sum(packetBytes)"
scalar scenarioPRJP1.node[72].lo0.lo 	passedUpPk:count 	13
attr interpolationmode  none
attr source  packetSentToUpper
attr title  "packets passed to higher layer, count"
scalar scenarioPRJP1.node[72].lo0.lo 	passedUpPk:sum(packetBytes) 	728
attr interpolationmode  none
attr source  packetSentToUpper
attr title  "packets passed to higher layer, sum(packetBytes)"
scalar scenarioPRJP1.node[49].app 	"Total sent" 	4879
scalar scenarioPRJP1.node[49].app 	"Total received" 	441
scalar scenarioPRJP1.node[49].app 	"Total deleted" 	0
scalar scenarioPRJP1.node[49].app 	dropPk:count 	0
attr interpolationmode  none
attr source  dropPk
attr title  "packets dropped, count"
scalar scenarioPRJP1.node[49].app 	dropPk:sum(packetBytes) 	0
attr interpolationmode  none
attr source  dropPk
attr title  "packets dropped, sum(packetBytes)"
scalar scenarioPRJP1.node[49].app 	outOfOrderPk:count 	1
attr interpolationmode  none
attr source  outOfOrderPk
attr title  "packets received out of order, count"
scalar scenarioPRJP1.node[49].app 	outOfOrderPk:sum(packetBytes) 	512
attr interpolationmode  none
attr source  outOfOrderPk
attr title  "packets received out of order, sum(packetBytes)"
scalar scenarioPRJP1.node[49].app 	rcvdPk:count 	441
attr interpolationmode  none
attr source  rcvdPk
attr title  "packets received, count"
scalar scenarioPRJP1.node[49].app 	rcvdPk:sum(packetBytes) 	225792
attr interpolationmode  none
attr source  rcvdPk
attr title  "packets received, sum(packetBytes)"
statistic scenarioPRJP1.node[49].app 	endToEndDelay:histogram
field count 441
field mean 0.11332337936283
field stddev 0.34539718808558
field sum 49.975610299009
field sqrsum 58.155060761269
field min 0.000891022685
field max 2.759164586484
attr interpolationmode  none
attr source  messageAge(rcvdPk)
attr title  "delay, histogram"
attr unit  s
bin	-INF	0
bin	-1.0267069788915	0
bin	-0.88969385828757	0
bin	-0.75268073768363	0
bin	-0.6156676170797	0
bin	-0.47865449647577	0
bin	-0.34164137587183	0
bin	-0.2046282552679	0
bin	-0.067615134663967	377
bin	0.069397985939967	26
bin	0.2064111065439	4
bin	0.34342422714783	0
bin	0.48043734775177	2
bin	0.6174504683557	0
bin	0.75446358895963	4
bin	0.89147670956357	10
bin	1.0284898301675	10
bin	1.1655029507714	1
bin	1.3025160713754	0
bin	1.4395291919793	0
bin	1.5765423125832	0
bin	1.7135554331872	1
bin	1.8505685537911	0
bin	1.987581674395	5
bin	2.124594794999	0
bin	2.2616079156029	0
bin	2.3986210362068	0
bin	2.5356341568108	0
bin	2.6726472774147	1
bin	2.8096603980186	0
bin	2.9466735186226	0
bin	3.0836866392265	0
scalar scenarioPRJP1.node[49].app 	sentPk:count 	4879
attr interpolationmode  none
attr source  sentPk
attr title  "packets sent, count"
scalar scenarioPRJP1.node[49].app 	sentPk:sum(packetBytes) 	2498048
attr interpolationmode  none
attr source  sentPk
attr title  "packets sent, sum(packetBytes)"
scalar scenarioPRJP1.node[49].udp 	droppedPkBadChecksum:count 	0
attr interpolationmode  none
attr title  "packets dropped (checksum error), count"
scalar scenarioPRJP1.node[49].udp 	droppedPkWrongPort:count 	0
attr interpolationmode  none
attr title  "packets dropped (wrong port), count"
scalar scenarioPRJP1.node[49].udp 	passedUpPk:count 	442
attr interpolationmode  none
attr title  "packets passed up, count"
scalar scenarioPRJP1.node[49].udp 	rcvdPk:count 	442
attr interpolationmode  none
attr source  rcvdPk
attr title  "packets received, count"
scalar scenarioPRJP1.node[49].udp 	rcvdPk:sum(packetBytes) 	229840
attr interpolationmode  none
attr source  rcvdPk
attr title  "packets received, sum(packetBytes)"
scalar scenarioPRJP1.node[49].udp 	sentPk:count 	4879
attr interpolationmode  none
attr source  sentPk
attr title  "packets sent, count"
scalar scenarioPRJP1.node[49].udp 	sentPk:sum(packetBytes) 	2537080
attr interpolationmode  none
attr source  sentPk
attr title  "packets sent, sum(packetBytes)"
scalar scenarioPRJP1.node[49].networkLayer.arp 	failedARPResolution:count 	22
attr title  "ARP failed resolutions, count"
scalar scenarioPRJP1.node[49].networkLayer.arp 	completedARPResolution:count 	1081
attr title  "ARP completed resolutions, count"
scalar scenarioPRJP1.node[49].networkLayer.arp 	initiatedARPResolution:count 	133
attr title  "ARP initiated resolutions, count"
scalar scenarioPRJP1.node[49].networkLayer.arp 	sentReply:count 	92
attr title  "ARP replies sent, count"
scalar scenarioPRJP1.node[49].networkLayer.arp 	sentReq:count 	229
attr title  "ARP request sent, count"
scalar scenarioPRJP1.node[49].mobility 	startTime 	4.9
scalar scenarioPRJP1.node[49].mobility 	totalTime 	1738.1
scalar scenarioPRJP1.node[49].mobility 	stopTime 	1743.1
scalar scenarioPRJP1.node[49].mobility 	minSpeed 	2.4754242469982e-13
scalar scenarioPRJP1.node[49].mobility 	maxSpeed 	20.58384279592
scalar scenarioPRJP1.node[49].mobility 	totalDistance 	20081.993586531
scalar scenarioPRJP1.node[49].mobility 	totalCO2Emission 	5340.0352350207
scalar scenarioPRJP1.node[49].wlan.mgmt 	dataQueueLen:max 	4
attr interpolationmode  sample-hold
attr title  "data queue length, max"
scalar scenarioPRJP1.node[49].wlan.mgmt 	dataQueueLen:timeavg 	0
attr interpolationmode  sample-hold
attr title  "data queue length, timeavg"
scalar scenarioPRJP1.node[49].wlan.mgmt 	dropPkByQueue:count 	0
attr interpolationmode  none
attr source  dropPkByQueue
attr title  "packets dropped by queue, count"
scalar scenarioPRJP1.node[49].wlan.mgmt 	dropPkByQueue:sum(packetBytes) 	0
attr interpolationmode  none
attr source  dropPkByQueue
attr title  "packets dropped by queue, sum(packetBytes)"
scalar scenarioPRJP1.node[49].wlan.mac 	"number of received packets" 	3543
scalar scenarioPRJP1.node[49].wlan.mac 	"number of collisions" 	26346
scalar scenarioPRJP1.node[49].wlan.mac 	"number of internal collisions" 	1
scalar scenarioPRJP1.node[49].wlan.mac 	"number of retry for AC 0" 	6962
scalar scenarioPRJP1.node[49].wlan.mac 	"number of retry for AC 1" 	22
scalar scenarioPRJP1.node[49].wlan.mac 	"number of retry for AC 2" 	0
scalar scenarioPRJP1.node[49].wlan.mac 	"number of retry for AC 3" 	0
scalar scenarioPRJP1.node[49].wlan.mac 	"sent and received bits" 	67453600
scalar scenarioPRJP1.node[49].wlan.mac 	"sent packet within AC 0" 	3315
scalar scenarioPRJP1.node[49].wlan.mac 	"sent packet within AC 1" 	129
scalar scenarioPRJP1.node[49].wlan.mac 	"sent packet within AC 2" 	0
scalar scenarioPRJP1.node[49].wlan.mac 	"sent packet within AC 3" 	0
scalar scenarioPRJP1.node[49].wlan.mac 	"sent in TXOP " 	0
scalar scenarioPRJP1.node[49].wlan.mac 	"sentWithoutRetry AC 0" 	2783
scalar scenarioPRJP1.node[49].wlan.mac 	"sentWithoutRetry AC 1" 	122
scalar scenarioPRJP1.node[49].wlan.mac 	"sentWithoutRetry AC 2" 	0
scalar scenarioPRJP1.node[49].wlan.mac 	"sentWithoutRetry AC 3" 	0
scalar scenarioPRJP1.node[49].wlan.mac 	"numGivenUp AC 0" 	883
scalar scenarioPRJP1.node[49].wlan.mac 	"numGivenUp AC 1" 	2
scalar scenarioPRJP1.node[49].wlan.mac 	"numGivenUp AC 2" 	0
scalar scenarioPRJP1.node[49].wlan.mac 	"numGivenUp AC 3" 	0
scalar scenarioPRJP1.node[49].wlan.mac 	"numDropped AC 0" 	0
scalar scenarioPRJP1.node[49].wlan.mac 	"numDropped AC 1" 	0
scalar scenarioPRJP1.node[49].wlan.mac 	"numDropped AC 2" 	0
scalar scenarioPRJP1.node[49].wlan.mac 	"numDropped AC 3" 	0
scalar scenarioPRJP1.node[49].wlan.mac 	rcvdPkFromLL:count 	112441
attr interpolationmode  none
attr source  packetReceivedFromLower
attr title  "packets received from lower layer, count"
scalar scenarioPRJP1.node[49].wlan.mac 	rcvdPkFromLL:sum(packetBytes) 	70247720
attr interpolationmode  none
attr source  packetReceivedFromLower
attr title  "packets received from lower layer, sum(packetBytes)"
scalar scenarioPRJP1.node[49].wlan.mac 	sentDownPk:count 	21361
attr interpolationmode  none
attr source  packetSentToLower
attr title  "packets sent to lower layer, count"
scalar scenarioPRJP1.node[49].wlan.mac 	sentDownPk:sum(packetBytes) 	12929502
attr interpolationmode  none
attr source  packetSentToLower
attr title  "packets sent to lower layer, sum(packetBytes)"
scalar scenarioPRJP1.node[49].wlan.mac 	rcvdPkFromHL:count 	10836
attr interpolationmode  none
attr source  packetReceivedFromUpper
attr title  "packets received from higher layer, count"
scalar scenarioPRJP1.node[49].wlan.mac 	rcvdPkFromHL:sum(packetBytes) 	8940060
attr interpolationmode  none
attr source  packetReceivedFromUpper
attr title  "packets received from higher layer, sum(packetBytes)"
scalar scenarioPRJP1.node[49].wlan.mac 	passedUpPk:count 	36961
attr interpolationmode  none
attr source  packetSentToUpper
attr title  "packets passed to higher layer, count"
scalar scenarioPRJP1.node[49].wlan.mac 	passedUpPk:sum(packetBytes) 	35633252
attr interpolationmode  none
attr source  packetSentToUpper
attr title  "packets passed to higher layer, sum(packetBytes)"
statistic scenarioPRJP1.node[49].wlan.radio 	radioChannel:histogram
field count 1
field mean 3
field stddev -nan
field sum 3
field sqrsum 9
field min 3
field max 3
attr interpolationmode  sample-hold
attr source  radioChannelChanged
attr title  "Radio channel, histogram"
bin	-INF	0
bin	2	0
bin	3	1
bin	4	0
scalar scenarioPRJP1.node[49].wlan.radio 	transmissionState:count 	85442
attr interpolationmode  sample-hold
attr source  transmissionStateChanged
attr title  "Radio transmission state, count"
scalar scenarioPRJP1.node[49].wlan.radio 	receptionState:count 	513741
attr interpolationmode  sample-hold
attr source  receptionStateChanged
attr title  "Radio reception state, count"
scalar scenarioPRJP1.node[49].wlan.radio 	radioMode:count 	42723
attr interpolationmode  sample-hold
attr source  radioModeChanged
attr title  "Radio mode, count"
statistic scenarioPRJP1.node[49].wlan.radio 	symbolErrorRate:histogram
field count 0
field mean -nan
field stddev -nan
field sum 0
field sqrsum 0
field min -nan
field max -nan
attr source  symbolErrorRate
attr title  "Symbol error rate, histogram"
bin	-INF	0
bin	-0.5	0
bin	-0.46666666666667	0
bin	-0.43333333333333	0
bin	-0.4	0
bin	-0.36666666666667	0
bin	-0.33333333333333	0
bin	-0.3	0
bin	-0.26666666666667	0
bin	-0.23333333333333	0
bin	-0.2	0
bin	-0.16666666666667	0
bin	-0.13333333333333	0
bin	-0.1	0
bin	-0.066666666666667	0
bin	-0.033333333333333	0
bin	0	0
bin	0.033333333333333	0
bin	0.066666666666667	0
bin	0.1	0
bin	0.13333333333333	0
bin	0.16666666666667	0
bin	0.2	0
bin	0.23333333333333	0
bin	0.26666666666667	0
bin	0.3	0
bin	0.33333333333333	0
bin	0.36666666666667	0
bin	0.4	0
bin	0.43333333333333	0
bin	0.46666666666667	0
bin	0.5	0
statistic scenarioPRJP1.node[49].wlan.radio 	bitErrorRate:histogram
field count 0
field mean -nan
field stddev -nan
field sum 0
field sqrsum 0
field min -nan
field max -nan
attr source  bitErrorRate
attr title  "Bit error rate, histogram"
bin	-INF	0
bin	-0.5	0
bin	-0.46666666666667	0
bin	-0.43333333333333	0
bin	-0.4	0
bin	-0.36666666666667	0
bin	-0.33333333333333	0
bin	-0.3	0
bin	-0.26666666666667	0
bin	-0.23333333333333	0
bin	-0.2	0
bin	-0.16666666666667	0
bin	-0.13333333333333	0
bin	-0.1	0
bin	-0.066666666666667	0
bin	-0.033333333333333	0
bin	0	0
bin	0.033333333333333	0
bin	0.066666666666667	0
bin	0.1	0
bin	0.13333333333333	0
bin	0.16666666666667	0
bin	0.2	0
bin	0.23333333333333	0
bin	0.26666666666667	0
bin	0.3	0
bin	0.33333333333333	0
bin	0.36666666666667	0
bin	0.4	0
bin	0.43333333333333	0
bin	0.46666666666667	0
bin	0.5	0
statistic scenarioPRJP1.node[49].wlan.radio 	packetErrorRate:histogram
field count 112441
field mean 0.22140401898822
field stddev 0.40590115074719
field sum 24894.889299054
field sqrsum 24036.964418439
field min 0
field max 1
attr source  packetErrorRate
attr title  "Packet error rate, histogram"
bin	-INF	0
bin	-0.49916948484164	0
bin	-0.43261355352942	0
bin	-0.3660576222172	0
bin	-0.29950169090499	0
bin	-0.23294575959277	0
bin	-0.16638982828055	0
bin	-0.099833896968328	0
bin	-0.033277965656109	84047
bin	0.03327796565611	1374
bin	0.099833896968328	721
bin	0.16638982828055	495
bin	0.23294575959277	365
bin	0.29950169090499	314
bin	0.3660576222172	244
bin	0.43261355352942	228
bin	0.49916948484164	247
bin	0.56572541615386	235
bin	0.63228134746608	231
bin	0.6988372787783	222
bin	0.76539321009052	254
bin	0.83194914140274	310
bin	0.89850507271496	464
bin	0.96506100402717	22690
bin	1.0316169353394	0
bin	1.0981728666516	0
bin	1.1647287979638	0
bin	1.2312847292761	0
bin	1.2978406605883	0
bin	1.3643965919005	0
bin	1.4309525232127	0
bin	1.4975084545249	0
statistic scenarioPRJP1.node[49].wlan.radio 	minSNIR:histogram
field count 112441
field mean 14078.591715419
field stddev 163943.44798694
field sum 1583010931.0734
field sqrsum 3.0443875078389e+15
field min 0.0001528375945243
field max 9587486.5827344
attr source  minSNIR
attr title  "Min SNIR, histogram"
bin	-INF	0
bin	-87901.657850839	0
bin	-76181.189920479	0
bin	-64460.721990119	0
bin	-52740.254059759	0
bin	-41019.786129399	0
bin	-29299.318199039	0
bin	-17578.850268679	0
bin	-5858.3823383189	105184
bin	5862.0855920411	3108
bin	17582.553522401	820
bin	29303.021452761	418
bin	41023.489383121	384
bin	52743.957313481	279
bin	64464.425243841	166
bin	76184.893174201	258
bin	87905.361104561	242
bin	99625.829034921	80
bin	111346.29696528	86
bin	123066.76489564	87
bin	134787.232826	38
bin	146507.70075636	67
bin	158228.16868672	29
bin	169948.63661708	58
bin	181669.10454744	13
bin	193389.5724778	28
bin	205110.04040816	11
bin	216830.50833852	25
bin	228550.97626888	36
bin	240271.44419924	28
bin	251991.9121296	15
bin	263712.38005996	981
scalar scenarioPRJP1.node[49].lo0.lo 	droppedPkBitError:count 	0
attr interpolationmode  none
attr source  dropPkBitError
attr title  "packets dropped/bit error, count"
scalar scenarioPRJP1.node[49].lo0.lo 	droppedPkBitError:sum(packetBytes) 	0
attr interpolationmode  none
attr source  dropPkBitError
attr title  "packets dropped/bit error, sum(packetBytes)"
scalar scenarioPRJP1.node[49].lo0.lo 	rcvdPkFromHL:count 	34
attr interpolationmode  none
attr source  packetReceivedFromUpper
attr title  "packets received from higher layer, count"
scalar scenarioPRJP1.node[49].lo0.lo 	rcvdPkFromHL:sum(packetBytes) 	1904
attr interpolationmode  none
attr source  packetReceivedFromUpper
attr title  "packets received from higher layer, sum(packetBytes)"
scalar scenarioPRJP1.node[49].lo0.lo 	passedUpPk:count 	34
attr interpolationmode  none
attr source  packetSentToUpper
attr title  "packets passed to higher layer, count"
scalar scenarioPRJP1.node[49].lo0.lo 	passedUpPk:sum(packetBytes) 	1904
attr interpolationmode  none
attr source  packetSentToUpper
attr title  "packets passed to higher layer, sum(packetBytes)"
scalar scenarioPRJP1.node[57].app 	"Total sent" 	5048
scalar scenarioPRJP1.node[57].app 	"Total received" 	431
scalar scenarioPRJP1.node[57].app 	"Total deleted" 	0
scalar scenarioPRJP1.node[57].app 	dropPk:count 	0
attr interpolationmode  none
attr source  dropPk
attr title  "packets dropped, count"
scalar scenarioPRJP1.node[57].app 	dropPk:sum(packetBytes) 	0
attr interpolationmode  none
attr source  dropPk
attr title  "packets dropped, sum(packetBytes)"
scalar scenarioPRJP1.node[57].app 	outOfOrderPk:count 	1
attr interpolationmode  none
attr source  outOfOrderPk
attr title  "packets received out of order, count"
scalar scenarioPRJP1.node[57].app 	outOfOrderPk:sum(packetBytes) 	512
attr interpolationmode  none
attr source  outOfOrderPk
attr title  "packets received out of order, sum(packetBytes)"
scalar scenarioPRJP1.node[57].app 	rcvdPk:count 	431
attr interpolationmode  none
attr source  rcvdPk
attr title  "packets received, count"
scalar scenarioPRJP1.node[57].app 	rcvdPk:sum(packetBytes) 	220672
attr interpolationmode  none
attr source  rcvdPk
attr title  "packets received, sum(packetBytes)"
statistic scenarioPRJP1.node[57].app 	endToEndDelay:histogram
field count 431
field mean 0.1029222183693
field stddev 0.31625990766935
field sum 44.35947611717
field sqrsum 47.574317243261
field min 0.000884282925
field max 2.005804912934
attr interpolationmode  none
attr source  messageAge(rcvdPk)
attr title  "delay, histogram"
attr unit  s
bin	-INF	0
bin	-0.5841029375235	0
bin	-0.50610374399263	0
bin	-0.42810455046177	0
bin	-0.3501053569309	0
bin	-0.27210616340003	0
bin	-0.19410696986917	0
bin	-0.1161077763383	0
bin	-0.038108582807433	337
bin	0.039890610723433	57
bin	0.1178898042543	1
bin	0.19588899778517	1
bin	0.27388819131603	3
bin	0.3518873848469	0
bin	0.42988657837777	1
bin	0.50788577190863	2
bin	0.5858849654395	1
bin	0.66388415897037	0
bin	0.74188335250123	1
bin	0.8198825460321	0
bin	0.89788173956297	0
bin	0.97588093309383	18
bin	1.0538801266247	1
bin	1.1318793201556	1
bin	1.2098785136864	0
bin	1.2878777072173	1
bin	1.3658769007482	0
bin	1.443876094279	0
bin	1.5218752878099	0
bin	1.5998744813408	0
bin	1.6778736748716	1
bin	1.7558728684025	5
scalar scenarioPRJP1.node[57].app 	sentPk:count 	5048
attr interpolationmode  none
attr source  sentPk
attr title  "packets sent, count"
scalar scenarioPRJP1.node[57].app 	sentPk:sum(packetBytes) 	2584576
attr interpolationmode  none
attr source  sentPk
attr title  "packets sent, sum(packetBytes)"
scalar scenarioPRJP1.node[57].udp 	droppedPkBadChecksum:count 	0
attr interpolationmode  none
attr title  "packets dropped (checksum error), count"
scalar scenarioPRJP1.node[57].udp 	droppedPkWrongPort:count 	0
attr interpolationmode  none
attr title  "packets dropped (wrong port), count"
scalar scenarioPRJP1.node[57].udp 	passedUpPk:count 	432
attr interpolationmode  none
attr title  "packets passed up, count"
scalar scenarioPRJP1.node[57].udp 	rcvdPk:count 	432
attr interpolationmode  none
attr source  rcvdPk
attr title  "packets received, count"
scalar scenarioPRJP1.node[57].udp 	rcvdPk:sum(packetBytes) 	224640
attr interpolationmode  none
attr source  rcvdPk
attr title  "packets received, sum(packetBytes)"
scalar scenarioPRJP1.node[57].udp 	sentPk:count 	5048
attr interpolationmode  none
attr source  sentPk
attr title  "packets sent, count"
scalar scenarioPRJP1.node[57].udp 	sentPk:sum(packetBytes) 	2624960
attr interpolationmode  none
attr source  sentPk
attr title  "packets sent, sum(packetBytes)"
scalar scenarioPRJP1.node[57].networkLayer.arp 	failedARPResolution:count 	10
attr title  "ARP failed resolutions, count"
scalar scenarioPRJP1.node[57].networkLayer.arp 	completedARPResolution:count 	1024
attr title  "ARP completed resolutions, count"
scalar scenarioPRJP1.node[57].networkLayer.arp 	initiatedARPResolution:count 	130
attr title  "ARP initiated resolutions, count"
scalar scenarioPRJP1.node[57].networkLayer.arp 	sentReply:count 	94
attr title  "ARP replies sent, count"
scalar scenarioPRJP1.node[57].networkLayer.arp 	sentReq:count 	210
attr title  "ARP request sent, count"
scalar scenarioPRJP1.node[57].mobility 	startTime 	4.9
scalar scenarioPRJP1.node[57].mobility 	totalTime 	1802.1
scalar scenarioPRJP1.node[57].mobility 	stopTime 	1807.1
scalar scenarioPRJP1.node[57].mobility 	minSpeed 	2.475607324143e-13
scalar scenarioPRJP1.node[57].mobility 	maxSpeed 	19.560361101328
scalar scenarioPRJP1.node[57].mobility 	totalDistance 	19039.978343525
scalar scenarioPRJP1.node[57].mobility 	totalCO2Emission 	5186.7103631533
scalar scenarioPRJP1.node[57].wlan.mgmt 	dataQueueLen:max 	6
attr interpolationmode  sample-hold
attr title  "data queue length, max"
scalar scenarioPRJP1.node[57].wlan.mgmt 	dataQueueLen:timeavg 	0
attr interpolationmode  sample-hold
attr title  "data queue length, timeavg"
scalar scenarioPRJP1.node[57].wlan.mgmt 	dropPkByQueue:count 	0
attr interpolationmode  none
attr source  dropPkByQueue
attr title  "packets dropped by queue, count"
scalar scenarioPRJP1.node[57].wlan.mgmt 	dropPkByQueue:sum(packetBytes) 	0
attr interpolationmode  none
attr source  dropPkByQueue
attr title  "packets dropped by queue, sum(packetBytes)"
scalar scenarioPRJP1.node[57].wlan.mac 	"number of received packets" 	2339
scalar scenarioPRJP1.node[57].wlan.mac 	"number of collisions" 	25272
scalar scenarioPRJP1.node[57].wlan.mac 	"number of internal collisions" 	2
scalar scenarioPRJP1.node[57].wlan.mac 	"number of retry for AC 0" 	5976
scalar scenarioPRJP1.node[57].wlan.mac 	"number of retry for AC 1" 	37
scalar scenarioPRJP1.node[57].wlan.mac 	"number of retry for AC 2" 	0
scalar scenarioPRJP1.node[57].wlan.mac 	"number of retry for AC 3" 	0
scalar scenarioPRJP1.node[57].wlan.mac 	"sent and received bits" 	60661952
scalar scenarioPRJP1.node[57].wlan.mac 	"sent packet within AC 0" 	2221
scalar scenarioPRJP1.node[57].wlan.mac 	"sent packet within AC 1" 	93
scalar scenarioPRJP1.node[57].wlan.mac 	"sent packet within AC 2" 	0
scalar scenarioPRJP1.node[57].wlan.mac 	"sent packet within AC 3" 	0
scalar scenarioPRJP1.node[57].wlan.mac 	"sent in TXOP " 	0
scalar scenarioPRJP1.node[57].wlan.mac 	"sentWithoutRetry AC 0" 	1767
scalar scenarioPRJP1.node[57].wlan.mac 	"sentWithoutRetry AC 1" 	80
scalar scenarioPRJP1.node[57].wlan.mac 	"sentWithoutRetry AC 2" 	0
scalar scenarioPRJP1.node[57].wlan.mac 	"sentWithoutRetry AC 3" 	0
scalar scenarioPRJP1.node[57].wlan.mac 	"numGivenUp AC 0" 	742
scalar scenarioPRJP1.node[57].wlan.mac 	"numGivenUp AC 1" 	1
scalar scenarioPRJP1.node[57].wlan.mac 	"numGivenUp AC 2" 	0
scalar scenarioPRJP1.node[57].wlan.mac 	"numGivenUp AC 3" 	0
scalar scenarioPRJP1.node[57].wlan.mac 	"numDropped AC 0" 	0
scalar scenarioPRJP1.node[57].wlan.mac 	"numDropped AC 1" 	0
scalar scenarioPRJP1.node[57].wlan.mac 	"numDropped AC 2" 	0
scalar scenarioPRJP1.node[57].wlan.mac 	"numDropped AC 3" 	0
scalar scenarioPRJP1.node[57].wlan.mac 	rcvdPkFromLL:count 	111311
attr interpolationmode  none
attr source  packetReceivedFromLower
attr title  "packets received from lower layer, count"
scalar scenarioPRJP1.node[57].wlan.mac 	rcvdPkFromLL:sum(packetBytes) 	69813120
attr interpolationmode  none
attr source  packetReceivedFromLower
attr title  "packets received from lower layer, sum(packetBytes)"
scalar scenarioPRJP1.node[57].wlan.mac 	sentDownPk:count 	17687
attr interpolationmode  none
attr source  packetSentToLower
attr title  "packets sent to lower layer, count"
scalar scenarioPRJP1.node[57].wlan.mac 	sentDownPk:sum(packetBytes) 	11424938
attr interpolationmode  none
attr source  packetSentToLower
attr title  "packets sent to lower layer, sum(packetBytes)"
scalar scenarioPRJP1.node[57].wlan.mac 	rcvdPkFromHL:count 	9337
attr interpolationmode  none
attr source  packetReceivedFromUpper
attr title  "packets received from higher layer, count"
scalar scenarioPRJP1.node[57].wlan.mac 	rcvdPkFromHL:sum(packetBytes) 	8007668
attr interpolationmode  none
attr source  packetReceivedFromUpper
attr title  "packets received from higher layer, sum(packetBytes)"
scalar scenarioPRJP1.node[57].wlan.mac 	passedUpPk:count 	36489
attr interpolationmode  none
attr source  packetSentToUpper
attr title  "packets passed to higher layer, count"
scalar scenarioPRJP1.node[57].wlan.mac 	passedUpPk:sum(packetBytes) 	35886936
attr interpolationmode  none
attr source  packetSentToUpper
attr title  "packets passed to higher layer, sum(packetBytes)"
statistic scenarioPRJP1.node[57].wlan.radio 	radioChannel:histogram
field count 1
field mean 3
field stddev -nan
field sum 3
field sqrsum 9
field min 3
field max 3
attr interpolationmode  sample-hold
attr source  radioChannelChanged
attr title  "Radio channel, histogram"
bin	-INF	0
bin	2	0
bin	3	1
bin	4	0
scalar scenarioPRJP1.node[57].wlan.radio 	transmissionState:count 	70748
attr interpolationmode  sample-hold
attr source  transmissionStateChanged
attr title  "Radio transmission state, count"
scalar scenarioPRJP1.node[57].wlan.radio 	receptionState:count 	469915
attr interpolationmode  sample-hold
attr source  receptionStateChanged
attr title  "Radio reception state, count"
scalar scenarioPRJP1.node[57].wlan.radio 	radioMode:count 	35376
attr interpolationmode  sample-hold
attr source  radioModeChanged
attr title  "Radio mode, count"
statistic scenarioPRJP1.node[57].wlan.radio 	symbolErrorRate:histogram
field count 0
field mean -nan
field stddev -nan
field sum 0
field sqrsum 0
field min -nan
field max -nan
attr source  symbolErrorRate
attr title  "Symbol error rate, histogram"
bin	-INF	0
bin	-0.5	0
bin	-0.46666666666667	0
bin	-0.43333333333333	0
bin	-0.4	0
bin	-0.36666666666667	0
bin	-0.33333333333333	0
bin	-0.3	0
bin	-0.26666666666667	0
bin	-0.23333333333333	0
bin	-0.2	0
bin	-0.16666666666667	0
bin	-0.13333333333333	0
bin	-0.1	0
bin	-0.066666666666667	0
bin	-0.033333333333333	0
bin	0	0
bin	0.033333333333333	0
bin	0.066666666666667	0
bin	0.1	0
bin	0.13333333333333	0
bin	0.16666666666667	0
bin	0.2	0
bin	0.23333333333333	0
bin	0.26666666666667	0
bin	0.3	0
bin	0.33333333333333	0
bin	0.36666666666667	0
bin	0.4	0
bin	0.43333333333333	0
bin	0.46666666666667	0
bin	0.5	0
statistic scenarioPRJP1.node[57].wlan.radio 	bitErrorRate:histogram
field count 0
field mean -nan
field stddev -nan
field sum 0
field sqrsum 0
field min -nan
field max -nan
attr source  bitErrorRate
attr title  "Bit error rate, histogram"
bin	-INF	0
bin	-0.5	0
bin	-0.46666666666667	0
bin	-0.43333333333333	0
bin	-0.4	0
bin	-0.36666666666667	0
bin	-0.33333333333333	0
bin	-0.3	0
bin	-0.26666666666667	0
bin	-0.23333333333333	0
bin	-0.2	0
bin	-0.16666666666667	0
bin	-0.13333333333333	0
bin	-0.1	0
bin	-0.066666666666667	0
bin	-0.033333333333333	0
bin	0	0
bin	0.033333333333333	0
bin	0.066666666666667	0
bin	0.1	0
bin	0.13333333333333	0
bin	0.16666666666667	0
bin	0.2	0
bin	0.23333333333333	0
bin	0.26666666666667	0
bin	0.3	0
bin	0.33333333333333	0
bin	0.36666666666667	0
bin	0.4	0
bin	0.43333333333333	0
bin	0.46666666666667	0
bin	0.5	0
statistic scenarioPRJP1.node[57].wlan.radio 	packetErrorRate:histogram
field count 111311
field mean 0.21415201311443
field stddev 0.40146066294167
field sum 23837.474731781
field sqrsum 23044.749798923
field min 0
field max 1
attr source  packetErrorRate
attr title  "Packet error rate, histogram"
bin	-INF	0
bin	-8.6676734191715e-06	0
bin	-7.5119836299486e-06	0
bin	-6.3562938407258e-06	0
bin	-5.2006040515029e-06	0
bin	-4.04491426228e-06	0
bin	-2.8892244730572e-06	0
bin	-1.7335346838343e-06	0
bin	-5.7784489461143e-07	74374
bin	5.7784489461144e-07	788
bin	1.7335346838343e-06	372
bin	2.8892244730572e-06	238
bin	4.04491426228e-06	198
bin	5.2006040515029e-06	143
bin	6.3562938407258e-06	132
bin	7.5119836299487e-06	108
bin	8.6676734191715e-06	109
bin	9.8233632083944e-06	78
bin	1.0979052997617e-05	84
bin	1.213474278684e-05	62
bin	1.3290432576063e-05	72
bin	1.4446122365286e-05	67
bin	1.5601812154509e-05	62
bin	1.6757501943732e-05	40
bin	1.7913191732954e-05	51
bin	1.9068881522177e-05	61
bin	2.02245713114e-05	41
bin	2.1380261100623e-05	41
bin	2.2535950889846e-05	43
bin	2.3691640679069e-05	30
bin	2.4847330468292e-05	37
bin	2.6003020257515e-05	34080
statistic scenarioPRJP1.node[57].wlan.radio 	minSNIR:histogram
field count 111311
field mean 16512.580700561
field stddev 187834.55405108
field sum 1838031870.3602
field sqrsum 3.957569999903e+15
field min 0.00020544186673146
field max 28987022.926273
attr source  minSNIR
attr title  "Min SNIR, histogram"
bin	-INF	0
bin	-66937.933994231	0
bin	-58012.35256009	0
bin	-49086.771125948	0
bin	-40161.189691807	0
bin	-31235.608257665	0
bin	-22310.026823523	0
bin	-13384.445389382	0
bin	-4458.8639552403	101153
bin	4466.7174789013	3978
bin	13392.298913043	1204
bin	22317.880347184	594
bin	31243.461781326	447
bin	40169.043215468	452
bin	49094.624649609	464
bin	58020.206083751	228
bin	66945.787517892	141
bin	75871.368952034	198
bin	84796.950386175	172
bin	93722.531820317	216
bin	102648.11325446	92
bin	111573.6946886	88
bin	120499.27612274	78
bin	129424.85755688	50
bin	138350.43899102	30
bin	147276.02042517	36
bin	156201.60185931	58
bin	165127.18329345	230
bin	174052.76472759	104
bin	182978.34616173	30
bin	191903.92759587	52
bin	200829.50903002	1216
scalar scenarioPRJP1.node[57].lo0.lo 	droppedPkBitError:count 	0
attr interpolationmode  none
attr source  dropPkBitError
attr title  "packets dropped/bit error, count"
scalar scenarioPRJP1.node[57].lo0.lo 	droppedPkBitError:sum(packetBytes) 	0
attr interpolationmode  none
attr source  dropPkBitError
attr title  "packets dropped/bit error, sum(packetBytes)"
scalar scenarioPRJP1.node[57].lo0.lo 	rcvdPkFromHL:count 	13
attr interpolationmode  none
attr source  packetReceivedFromUpper
attr title  "packets received from higher layer, count"
scalar scenarioPRJP1.node[57].lo0.lo 	rcvdPkFromHL:sum(packetBytes) 	728
attr interpolationmode  none
attr source  packetReceivedFromUpper
attr title  "packets received from higher layer, sum(packetBytes)"
scalar scenarioPRJP1.node[57].lo0.lo 	passedUpPk:count 	13
attr interpolationmode  none
attr source  packetSentToUpper
attr title  "packets passed to higher layer, count"
scalar scenarioPRJP1.node[57].lo0.lo 	passedUpPk:sum(packetBytes) 	728
attr interpolationmode  none
attr source  packetSentToUpper
attr title  "packets passed to higher layer, sum(packetBytes)"
scalar scenarioPRJP1.node[19].app 	"Total sent" 	5026
scalar scenarioPRJP1.node[19].app 	"Total received" 	407
scalar scenarioPRJP1.node[19].app 	"Total deleted" 	0
scalar scenarioPRJP1.node[19].app 	dropPk:count 	0
attr interpolationmode  none
attr source  dropPk
attr title  "packets dropped, count"
scalar scenarioPRJP1.node[19].app 	dropPk:sum(packetBytes) 	0
attr interpolationmode  none
attr source  dropPk
attr title  "packets dropped, sum(packetBytes)"
scalar scenarioPRJP1.node[19].app 	outOfOrderPk:count 	0
attr interpolationmode  none
attr source  outOfOrderPk
attr title  "packets received out of order, count"
scalar scenarioPRJP1.node[19].app 	outOfOrderPk:sum(packetBytes) 	0
attr interpolationmode  none
attr source  outOfOrderPk
attr title  "packets received out of order, sum(packetBytes)"
scalar scenarioPRJP1.node[19].app 	rcvdPk:count 	407
attr interpolationmode  none
attr source  rcvdPk
attr title  "packets received, count"
scalar scenarioPRJP1.node[19].app 	rcvdPk:sum(packetBytes) 	208384
attr interpolationmode  none
attr source  rcvdPk
attr title  "packets received, sum(packetBytes)"
statistic scenarioPRJP1.node[19].app 	endToEndDelay:histogram
field count 407
field mean 0.13746581838196
field stddev 0.40501793232717
field sum 55.948588081459
field sqrsum 74.291065803603
field min 0.000890913198
field max 2.870051822143
attr interpolationmode  none
attr source  messageAge(rcvdPk)
attr title  "delay, histogram"
attr unit  s
bin	-INF	0
bin	-1.031333962395	0
bin	-0.89370268409647	0
bin	-0.75607140579793	0
bin	-0.6184401274994	0
bin	-0.48080884920087	0
bin	-0.34317757090233	0
bin	-0.2055462926038	0
bin	-0.067915014305266	342
bin	0.069716263993267	24
bin	0.2073475422918	6
bin	0.34497882059033	0
bin	0.48261009888887	4
bin	0.6202413771874	0
bin	0.75787265548593	5
bin	0.89550393378447	10
bin	1.033135212083	2
bin	1.1707664903815	1
bin	1.3083977686801	0
bin	1.4460290469786	1
bin	1.5836603252771	0
bin	1.7212916035757	1
bin	1.8589228818742	0
bin	1.9965541601727	10
bin	2.1341854384713	0
bin	2.2718167167698	0
bin	2.4094479950683	0
bin	2.5470792733669	0
bin	2.6847105516654	0
bin	2.8223418299639	1
bin	2.9599731082625	0
bin	3.097604386561	0
scalar scenarioPRJP1.node[19].app 	sentPk:count 	5026
attr interpolationmode  none
attr source  sentPk
attr title  "packets sent, count"
scalar scenarioPRJP1.node[19].app 	sentPk:sum(packetBytes) 	2573312
attr interpolationmode  none
attr source  sentPk
attr title  "packets sent, sum(packetBytes)"
scalar scenarioPRJP1.node[19].udp 	droppedPkBadChecksum:count 	0
attr interpolationmode  none
attr title  "packets dropped (checksum error), count"
scalar scenarioPRJP1.node[19].udp 	droppedPkWrongPort:count 	0
attr interpolationmode  none
attr title  "packets dropped (wrong port), count"
scalar scenarioPRJP1.node[19].udp 	passedUpPk:count 	407
attr interpolationmode  none
attr title  "packets passed up, count"
scalar scenarioPRJP1.node[19].udp 	rcvdPk:count 	407
attr interpolationmode  none
attr source  rcvdPk
attr title  "packets received, count"
scalar scenarioPRJP1.node[19].udp 	rcvdPk:sum(packetBytes) 	211640
attr interpolationmode  none
attr source  rcvdPk
attr title  "packets received, sum(packetBytes)"
scalar scenarioPRJP1.node[19].udp 	sentPk:count 	5026
attr interpolationmode  none
attr source  sentPk
attr title  "packets sent, count"
scalar scenarioPRJP1.node[19].udp 	sentPk:sum(packetBytes) 	2613520
attr interpolationmode  none
attr source  sentPk
attr title  "packets sent, sum(packetBytes)"
scalar scenarioPRJP1.node[19].networkLayer.arp 	failedARPResolution:count 	14
attr title  "ARP failed resolutions, count"
scalar scenarioPRJP1.node[19].networkLayer.arp 	completedARPResolution:count 	1109
attr title  "ARP completed resolutions, count"
scalar scenarioPRJP1.node[19].networkLayer.arp 	initiatedARPResolution:count 	134
attr title  "ARP initiated resolutions, count"
scalar scenarioPRJP1.node[19].networkLayer.arp 	sentReply:count 	99
attr title  "ARP replies sent, count"
scalar scenarioPRJP1.node[19].networkLayer.arp 	sentReq:count 	213
attr title  "ARP request sent, count"
scalar scenarioPRJP1.node[19].mobility 	startTime 	0.1
scalar scenarioPRJP1.node[19].mobility 	totalTime 	1809.3
scalar scenarioPRJP1.node[19].mobility 	stopTime 	1809.5
scalar scenarioPRJP1.node[19].mobility 	minSpeed 	2.4754179558633e-13
scalar scenarioPRJP1.node[19].mobility 	maxSpeed 	17.269239951859
scalar scenarioPRJP1.node[19].mobility 	totalDistance 	19990.562623457
scalar scenarioPRJP1.node[19].mobility 	totalCO2Emission 	4859.5650254448
scalar scenarioPRJP1.node[19].wlan.mgmt 	dataQueueLen:max 	4
attr interpolationmode  sample-hold
attr title  "data queue length, max"
scalar scenarioPRJP1.node[19].wlan.mgmt 	dataQueueLen:timeavg 	0
attr interpolationmode  sample-hold
attr title  "data queue length, timeavg"
scalar scenarioPRJP1.node[19].wlan.mgmt 	dropPkByQueue:count 	0
attr interpolationmode  none
attr source  dropPkByQueue
attr title  "packets dropped by queue, count"
scalar scenarioPRJP1.node[19].wlan.mgmt 	dropPkByQueue:sum(packetBytes) 	0
attr interpolationmode  none
attr source  dropPkByQueue
attr title  "packets dropped by queue, sum(packetBytes)"
scalar scenarioPRJP1.node[19].wlan.mac 	"number of received packets" 	3187
scalar scenarioPRJP1.node[19].wlan.mac 	"number of collisions" 	26995
scalar scenarioPRJP1.node[19].wlan.mac 	"number of internal collisions" 	5
scalar scenarioPRJP1.node[19].wlan.mac 	"number of retry for AC 0" 	6301
scalar scenarioPRJP1.node[19].wlan.mac 	"number of retry for AC 1" 	61
scalar scenarioPRJP1.node[19].wlan.mac 	"number of retry for AC 2" 	0
scalar scenarioPRJP1.node[19].wlan.mac 	"number of retry for AC 3" 	0
scalar scenarioPRJP1.node[19].wlan.mac 	"sent and received bits" 	68686112
scalar scenarioPRJP1.node[19].wlan.mac 	"sent packet within AC 0" 	3070
scalar scenarioPRJP1.node[19].wlan.mac 	"sent packet within AC 1" 	153
scalar scenarioPRJP1.node[19].wlan.mac 	"sent packet within AC 2" 	0
scalar scenarioPRJP1.node[19].wlan.mac 	"sent packet within AC 3" 	0
scalar scenarioPRJP1.node[19].wlan.mac 	"sent in TXOP " 	0
scalar scenarioPRJP1.node[19].wlan.mac 	"sentWithoutRetry AC 0" 	2538
scalar scenarioPRJP1.node[19].wlan.mac 	"sentWithoutRetry AC 1" 	140
scalar scenarioPRJP1.node[19].wlan.mac 	"sentWithoutRetry AC 2" 	0
scalar scenarioPRJP1.node[19].wlan.mac 	"sentWithoutRetry AC 3" 	0
scalar scenarioPRJP1.node[19].wlan.mac 	"numGivenUp AC 0" 	756
scalar scenarioPRJP1.node[19].wlan.mac 	"numGivenUp AC 1" 	6
scalar scenarioPRJP1.node[19].wlan.mac 	"numGivenUp AC 2" 	0
scalar scenarioPRJP1.node[19].wlan.mac 	"numGivenUp AC 3" 	0
scalar scenarioPRJP1.node[19].wlan.mac 	"numDropped AC 0" 	0
scalar scenarioPRJP1.node[19].wlan.mac 	"numDropped AC 1" 	0
scalar scenarioPRJP1.node[19].wlan.mac 	"numDropped AC 2" 	0
scalar scenarioPRJP1.node[19].wlan.mac 	"numDropped AC 3" 	0
scalar scenarioPRJP1.node[19].wlan.mac 	rcvdPkFromLL:count 	109236
attr interpolationmode  none
attr source  packetReceivedFromLower
attr title  "packets received from lower layer, count"
scalar scenarioPRJP1.node[19].wlan.mac 	rcvdPkFromLL:sum(packetBytes) 	70061772
attr interpolationmode  none
attr source  packetReceivedFromLower
attr title  "packets received from lower layer, sum(packetBytes)"
scalar scenarioPRJP1.node[19].wlan.mac 	sentDownPk:count 	20300
attr interpolationmode  none
attr source  packetSentToLower
attr title  "packets sent to lower layer, count"
scalar scenarioPRJP1.node[19].wlan.mac 	sentDownPk:sum(packetBytes) 	12627330
attr interpolationmode  none
attr source  packetSentToLower
attr title  "packets sent to lower layer, sum(packetBytes)"
scalar scenarioPRJP1.node[19].wlan.mac 	rcvdPkFromHL:count 	10756
attr interpolationmode  none
attr source  packetReceivedFromUpper
attr title  "packets received from higher layer, count"
scalar scenarioPRJP1.node[19].wlan.mac 	rcvdPkFromHL:sum(packetBytes) 	9017676
attr interpolationmode  none
attr source  packetReceivedFromUpper
attr title  "packets received from higher layer, sum(packetBytes)"
scalar scenarioPRJP1.node[19].wlan.mac 	passedUpPk:count 	37072
attr interpolationmode  none
attr source  packetSentToUpper
attr title  "packets passed to higher layer, count"
scalar scenarioPRJP1.node[19].wlan.mac 	passedUpPk:sum(packetBytes) 	35937856
attr interpolationmode  none
attr source  packetSentToUpper
attr title  "packets passed to higher layer, sum(packetBytes)"
statistic scenarioPRJP1.node[19].wlan.radio 	radioChannel:histogram
field count 1
field mean 3
field stddev -nan
field sum 3
field sqrsum 9
field min 3
field max 3
attr interpolationmode  sample-hold
attr source  radioChannelChanged
attr title  "Radio channel, histogram"
bin	-INF	0
bin	2	0
bin	3	1
bin	4	0
scalar scenarioPRJP1.node[19].wlan.radio 	transmissionState:count 	81200
attr interpolationmode  sample-hold
attr source  transmissionStateChanged
attr title  "Radio transmission state, count"
scalar scenarioPRJP1.node[19].wlan.radio 	receptionState:count 	535225
attr interpolationmode  sample-hold
attr source  receptionStateChanged
attr title  "Radio reception state, count"
scalar scenarioPRJP1.node[19].wlan.radio 	radioMode:count 	40602
attr interpolationmode  sample-hold
attr source  radioModeChanged
attr title  "Radio mode, count"
statistic scenarioPRJP1.node[19].wlan.radio 	symbolErrorRate:histogram
field count 0
field mean -nan
field stddev -nan
field sum 0
field sqrsum 0
field min -nan
field max -nan
attr source  symbolErrorRate
attr title  "Symbol error rate, histogram"
bin	-INF	0
bin	-0.5	0
bin	-0.46666666666667	0
bin	-0.43333333333333	0
bin	-0.4	0
bin	-0.36666666666667	0
bin	-0.33333333333333	0
bin	-0.3	0
bin	-0.26666666666667	0
bin	-0.23333333333333	0
bin	-0.2	0
bin	-0.16666666666667	0
bin	-0.13333333333333	0
bin	-0.1	0
bin	-0.066666666666667	0
bin	-0.033333333333333	0
bin	0	0
bin	0.033333333333333	0
bin	0.066666666666667	0
bin	0.1	0
bin	0.13333333333333	0
bin	0.16666666666667	0
bin	0.2	0
bin	0.23333333333333	0
bin	0.26666666666667	0
bin	0.3	0
bin	0.33333333333333	0
bin	0.36666666666667	0
bin	0.4	0
bin	0.43333333333333	0
bin	0.46666666666667	0
bin	0.5	0
statistic scenarioPRJP1.node[19].wlan.radio 	bitErrorRate:histogram
field count 0
field mean -nan
field stddev -nan
field sum 0
field sqrsum 0
field min -nan
field max -nan
attr source  bitErrorRate
attr title  "Bit error rate, histogram"
bin	-INF	0
bin	-0.5	0
bin	-0.46666666666667	0
bin	-0.43333333333333	0
bin	-0.4	0
bin	-0.36666666666667	0
bin	-0.33333333333333	0
bin	-0.3	0
bin	-0.26666666666667	0
bin	-0.23333333333333	0
bin	-0.2	0
bin	-0.16666666666667	0
bin	-0.13333333333333	0
bin	-0.1	0
bin	-0.066666666666667	0
bin	-0.033333333333333	0
bin	0	0
bin	0.033333333333333	0
bin	0.066666666666667	0
bin	0.1	0
bin	0.13333333333333	0
bin	0.16666666666667	0
bin	0.2	0
bin	0.23333333333333	0
bin	0.26666666666667	0
bin	0.3	0
bin	0.33333333333333	0
bin	0.36666666666667	0
bin	0.4	0
bin	0.43333333333333	0
bin	0.46666666666667	0
bin	0.5	0
statistic scenarioPRJP1.node[19].wlan.radio 	packetErrorRate:histogram
field count 109236
field mean 0.23381020013996
field stddev 0.41372843813398
field sum 25540.491022489
field sqrsum 24669.515591229
field min 0
field max 1
attr source  packetErrorRate
attr title  "Packet error rate, histogram"
bin	-INF	0
bin	-7.9307133638018e-09	0
bin	-6.8732849152949e-09	0
bin	-5.815856466788e-09	0
bin	-4.7584280182811e-09	0
bin	-3.7009995697742e-09	0
bin	-2.6435711212673e-09	0
bin	-1.5861426727604e-09	0
bin	-5.2871422425345e-10	64375
bin	5.2871422425345e-10	644
bin	1.5861426727604e-09	341
bin	2.6435711212673e-09	196
bin	3.7009995697742e-09	148
bin	4.7584280182811e-09	159
bin	5.815856466788e-09	120
bin	6.8732849152949e-09	98
bin	7.9307133638018e-09	88
bin	8.9881418123087e-09	57
bin	1.0045570260816e-08	66
bin	1.1102998709323e-08	68
bin	1.2160427157829e-08	49
bin	1.3217855606336e-08	47
bin	1.4275284054843e-08	45
bin	1.533271250335e-08	38
bin	1.6390140951857e-08	31
bin	1.7447569400364e-08	32
bin	1.8504997848871e-08	39
bin	1.9562426297378e-08	54
bin	2.0619854745885e-08	35
bin	2.1677283194392e-08	42
bin	2.2734711642898e-08	30
bin	2.3792140091405e-08	42434
statistic scenarioPRJP1.node[19].wlan.radio 	minSNIR:histogram
field count 109236
field mean 8874.3118910932
field stddev 186251.13411126
field sum 969394333.73546
field sqrsum 3.7979085970209e+15
field min 0.00024514752555997
field max 50659146.911024
attr source  minSNIR
attr title  "Min SNIR, histogram"
bin	-INF	0
bin	-51743.48551678	0
bin	-44843.660862667	0
bin	-37943.836208553	0
bin	-31044.01155444	0
bin	-24144.186900326	0
bin	-17244.362246213	0
bin	-10344.5375921	0
bin	-3444.7129379863	101652
bin	3455.1117161271	3045
bin	10354.93637024	984
bin	17254.761024354	513
bin	24154.585678467	311
bin	31054.410332581	202
bin	37954.234986694	162
bin	44854.059640807	305
bin	51753.884294921	151
bin	58653.708949034	115
bin	65553.533603148	102
bin	72453.358257261	191
bin	79353.182911374	61
bin	86253.007565488	247
bin	93152.832219601	63
bin	100052.65687371	27
bin	106952.48152783	27
bin	113852.30618194	40
bin	120752.13083605	41
bin	127651.95549017	45
bin	134551.78014428	21
bin	141451.60479839	31
bin	148351.42945251	38
bin	155251.25410662	862
scalar scenarioPRJP1.node[19].lo0.lo 	droppedPkBitError:count 	0
attr interpolationmode  none
attr source  dropPkBitError
attr title  "packets dropped/bit error, count"
scalar scenarioPRJP1.node[19].lo0.lo 	droppedPkBitError:sum(packetBytes) 	0
attr interpolationmode  none
attr source  dropPkBitError
attr title  "packets dropped/bit error, sum(packetBytes)"
scalar scenarioPRJP1.node[19].lo0.lo 	rcvdPkFromHL:count 	30
attr interpolationmode  none
attr source  packetReceivedFromUpper
attr title  "packets received from higher layer, count"
scalar scenarioPRJP1.node[19].lo0.lo 	rcvdPkFromHL:sum(packetBytes) 	1680
attr interpolationmode  none
attr source  packetReceivedFromUpper
attr title  "packets received from higher layer, sum(packetBytes)"
scalar scenarioPRJP1.node[19].lo0.lo 	passedUpPk:count 	30
attr interpolationmode  none
attr source  packetSentToUpper
attr title  "packets passed to higher layer, count"
scalar scenarioPRJP1.node[19].lo0.lo 	passedUpPk:sum(packetBytes) 	1680
attr interpolationmode  none
attr source  packetSentToUpper
attr title  "packets passed to higher layer, sum(packetBytes)"
scalar scenarioPRJP1.node[0].app 	"Total sent" 	5006
scalar scenarioPRJP1.node[0].app 	"Total received" 	470
scalar scenarioPRJP1.node[0].app 	"Total deleted" 	0
scalar scenarioPRJP1.node[0].app 	dropPk:count 	0
attr interpolationmode  none
attr source  dropPk
attr title  "packets dropped, count"
scalar scenarioPRJP1.node[0].app 	dropPk:sum(packetBytes) 	0
attr interpolationmode  none
attr source  dropPk
attr title  "packets dropped, sum(packetBytes)"
scalar scenarioPRJP1.node[0].app 	outOfOrderPk:count 	0
attr interpolationmode  none
attr source  outOfOrderPk
attr title  "packets received out of order, count"
scalar scenarioPRJP1.node[0].app 	outOfOrderPk:sum(packetBytes) 	0
attr interpolationmode  none
attr source  outOfOrderPk
attr title  "packets received out of order, sum(packetBytes)"
scalar scenarioPRJP1.node[0].app 	rcvdPk:count 	470
attr interpolationmode  none
attr source  rcvdPk
attr title  "packets received, count"
scalar scenarioPRJP1.node[0].app 	rcvdPk:sum(packetBytes) 	240640
attr interpolationmode  none
attr source  rcvdPk
attr title  "packets received, sum(packetBytes)"
statistic scenarioPRJP1.node[0].app 	endToEndDelay:histogram
field count 470
field mean 0.12852088610319
field stddev 0.41087693390435
field sum 60.404816468501
field sqrsum 86.9397924455
field min 0.000891028178
field max 4.153825732566
attr interpolationmode  none
attr source  messageAge(rcvdPk)
attr title  "delay, histogram"
attr unit  s
bin	-INF	0
bin	-1.0377821146365	0
bin	-0.8992923604963	0
bin	-0.7608026063561	0
bin	-0.6223128522159	0
bin	-0.4838230980757	0
bin	-0.3453333439355	0
bin	-0.2068435897953	0
bin	-0.0683538356551	405
bin	0.0701359184851	24
bin	0.2086256726253	4
bin	0.3471154267655	0
bin	0.4856051809057	2
bin	0.6240949350459	1
bin	0.7625846891861	2
bin	0.9010744433263	16
bin	1.0395641974665	4
bin	1.1780539516067	0
bin	1.3165437057469	0
bin	1.4550334598871	0
bin	1.5935232140273	0
bin	1.7320129681675	0
bin	1.8705027223077	5
bin	2.0089924764479	6
bin	2.1474822305881	0
bin	2.2859719847283	0
bin	2.4244617388685	0
bin	2.5629514930087	0
bin	2.7014412471489	0
bin	2.8399310012891	0
bin	2.9784207554293	0
bin	3.1169105095695	1
scalar scenarioPRJP1.node[0].app 	sentPk:count 	5006
attr interpolationmode  none
attr source  sentPk
attr title  "packets sent, count"
scalar scenarioPRJP1.node[0].app 	sentPk:sum(packetBytes) 	2563072
attr interpolationmode  none
attr source  sentPk
attr title  "packets sent, sum(packetBytes)"
scalar scenarioPRJP1.node[0].udp 	droppedPkBadChecksum:count 	0
attr interpolationmode  none
attr title  "packets dropped (checksum error), count"
scalar scenarioPRJP1.node[0].udp 	droppedPkWrongPort:count 	0
attr interpolationmode  none
attr title  "packets dropped (wrong port), count"
scalar scenarioPRJP1.node[0].udp 	passedUpPk:count 	470
attr interpolationmode  none
attr title  "packets passed up, count"
scalar scenarioPRJP1.node[0].udp 	rcvdPk:count 	470
attr interpolationmode  none
attr source  rcvdPk
attr title  "packets received, count"
scalar scenarioPRJP1.node[0].udp 	rcvdPk:sum(packetBytes) 	244400
attr interpolationmode  none
attr source  rcvdPk
attr title  "packets received, sum(packetBytes)"
scalar scenarioPRJP1.node[0].udp 	sentPk:count 	5006
attr interpolationmode  none
attr source  sentPk
attr title  "packets sent, count"
scalar scenarioPRJP1.node[0].udp 	sentPk:sum(packetBytes) 	2603120
attr interpolationmode  none
attr source  sentPk
attr title  "packets sent, sum(packetBytes)"
scalar scenarioPRJP1.node[0].networkLayer.arp 	failedARPResolution:count 	14
attr title  "ARP failed resolutions, count"
scalar scenarioPRJP1.node[0].networkLayer.arp 	completedARPResolution:count 	1089
attr title  "ARP completed resolutions, count"
scalar scenarioPRJP1.node[0].networkLayer.arp 	initiatedARPResolution:count 	122
attr title  "ARP initiated resolutions, count"
scalar scenarioPRJP1.node[0].networkLayer.arp 	sentReply:count 	123
attr title  "ARP replies sent, count"
scalar scenarioPRJP1.node[0].networkLayer.arp 	sentReq:count 	193
attr title  "ARP request sent, count"
scalar scenarioPRJP1.node[0].mobility 	startTime 	0.1
scalar scenarioPRJP1.node[0].mobility 	totalTime 	1829.5
scalar scenarioPRJP1.node[0].mobility 	stopTime 	1829.7
scalar scenarioPRJP1.node[0].mobility 	minSpeed 	2.4754843728341e-13
scalar scenarioPRJP1.node[0].mobility 	maxSpeed 	19.425413197243
scalar scenarioPRJP1.node[0].mobility 	totalDistance 	18269.940998415
scalar scenarioPRJP1.node[0].mobility 	totalCO2Emission 	5221.8385897021
scalar scenarioPRJP1.node[0].wlan.mgmt 	dataQueueLen:max 	1
attr interpolationmode  sample-hold
attr title  "data queue length, max"
scalar scenarioPRJP1.node[0].wlan.mgmt 	dataQueueLen:timeavg 	0
attr interpolationmode  sample-hold
attr title  "data queue length, timeavg"
scalar scenarioPRJP1.node[0].wlan.mgmt 	dropPkByQueue:count 	0
attr interpolationmode  none
attr source  dropPkByQueue
attr title  "packets dropped by queue, count"
scalar scenarioPRJP1.node[0].wlan.mgmt 	dropPkByQueue:sum(packetBytes) 	0
attr interpolationmode  none
attr source  dropPkByQueue
attr title  "packets dropped by queue, sum(packetBytes)"
scalar scenarioPRJP1.node[0].wlan.mac 	"number of received packets" 	2677
scalar scenarioPRJP1.node[0].wlan.mac 	"number of collisions" 	28927
scalar scenarioPRJP1.node[0].wlan.mac 	"number of internal collisions" 	5
scalar scenarioPRJP1.node[0].wlan.mac 	"number of retry for AC 0" 	6444
scalar scenarioPRJP1.node[0].wlan.mac 	"number of retry for AC 1" 	18
scalar scenarioPRJP1.node[0].wlan.mac 	"number of retry for AC 2" 	0
scalar scenarioPRJP1.node[0].wlan.mac 	"number of retry for AC 3" 	0
scalar scenarioPRJP1.node[0].wlan.mac 	"sent and received bits" 	67210912
scalar scenarioPRJP1.node[0].wlan.mac 	"sent packet within AC 0" 	2531
scalar scenarioPRJP1.node[0].wlan.mac 	"sent packet within AC 1" 	119
scalar scenarioPRJP1.node[0].wlan.mac 	"sent packet within AC 2" 	0
scalar scenarioPRJP1.node[0].wlan.mac 	"sent packet within AC 3" 	0
scalar scenarioPRJP1.node[0].wlan.mac 	"sent in TXOP " 	0
scalar scenarioPRJP1.node[0].wlan.mac 	"sentWithoutRetry AC 0" 	2023
scalar scenarioPRJP1.node[0].wlan.mac 	"sentWithoutRetry AC 1" 	115
scalar scenarioPRJP1.node[0].wlan.mac 	"sentWithoutRetry AC 2" 	0
scalar scenarioPRJP1.node[0].wlan.mac 	"sentWithoutRetry AC 3" 	0
scalar scenarioPRJP1.node[0].wlan.mac 	"numGivenUp AC 0" 	813
scalar scenarioPRJP1.node[0].wlan.mac 	"numGivenUp AC 1" 	2
scalar scenarioPRJP1.node[0].wlan.mac 	"numGivenUp AC 2" 	0
scalar scenarioPRJP1.node[0].wlan.mac 	"numGivenUp AC 3" 	0
scalar scenarioPRJP1.node[0].wlan.mac 	"numDropped AC 0" 	0
scalar scenarioPRJP1.node[0].wlan.mac 	"numDropped AC 1" 	0
scalar scenarioPRJP1.node[0].wlan.mac 	"numDropped AC 2" 	0
scalar scenarioPRJP1.node[0].wlan.mac 	"numDropped AC 3" 	0
scalar scenarioPRJP1.node[0].wlan.mac 	rcvdPkFromLL:count 	117498
attr interpolationmode  none
attr source  packetReceivedFromLower
attr title  "packets received from lower layer, count"
scalar scenarioPRJP1.node[0].wlan.mac 	rcvdPkFromLL:sum(packetBytes) 	73601910
attr interpolationmode  none
attr source  packetReceivedFromLower
attr title  "packets received from lower layer, sum(packetBytes)"
scalar scenarioPRJP1.node[0].wlan.mac 	sentDownPk:count 	19502
attr interpolationmode  none
attr source  packetSentToLower
attr title  "packets sent to lower layer, count"
scalar scenarioPRJP1.node[0].wlan.mac 	sentDownPk:sum(packetBytes) 	12523626
attr interpolationmode  none
attr source  packetSentToLower
attr title  "packets sent to lower layer, sum(packetBytes)"
scalar scenarioPRJP1.node[0].wlan.mac 	rcvdPkFromHL:count 	10368
attr interpolationmode  none
attr source  packetReceivedFromUpper
attr title  "packets received from higher layer, count"
scalar scenarioPRJP1.node[0].wlan.mac 	rcvdPkFromHL:sum(packetBytes) 	8862156
attr interpolationmode  none
attr source  packetReceivedFromUpper
attr title  "packets received from higher layer, sum(packetBytes)"
scalar scenarioPRJP1.node[0].wlan.mac 	passedUpPk:count 	37790
attr interpolationmode  none
attr source  packetSentToUpper
attr title  "packets passed to higher layer, count"
scalar scenarioPRJP1.node[0].wlan.mac 	passedUpPk:sum(packetBytes) 	36926440
attr interpolationmode  none
attr source  packetSentToUpper
attr title  "packets passed to higher layer, sum(packetBytes)"
statistic scenarioPRJP1.node[0].wlan.radio 	radioChannel:histogram
field count 1
field mean 3
field stddev -nan
field sum 3
field sqrsum 9
field min 3
field max 3
attr interpolationmode  sample-hold
attr source  radioChannelChanged
attr title  "Radio channel, histogram"
bin	-INF	0
bin	2	0
bin	3	1
bin	4	0
scalar scenarioPRJP1.node[0].wlan.radio 	transmissionState:count 	78008
attr interpolationmode  sample-hold
attr source  transmissionStateChanged
attr title  "Radio transmission state, count"
scalar scenarioPRJP1.node[0].wlan.radio 	receptionState:count 	533976
attr interpolationmode  sample-hold
attr source  receptionStateChanged
attr title  "Radio reception state, count"
scalar scenarioPRJP1.node[0].wlan.radio 	radioMode:count 	39006
attr interpolationmode  sample-hold
attr source  radioModeChanged
attr title  "Radio mode, count"
statistic scenarioPRJP1.node[0].wlan.radio 	symbolErrorRate:histogram
field count 0
field mean -nan
field stddev -nan
field sum 0
field sqrsum 0
field min -nan
field max -nan
attr source  symbolErrorRate
attr title  "Symbol error rate, histogram"
bin	-INF	0
bin	-0.5	0
bin	-0.46666666666667	0
bin	-0.43333333333333	0
bin	-0.4	0
bin	-0.36666666666667	0
bin	-0.33333333333333	0
bin	-0.3	0
bin	-0.26666666666667	0
bin	-0.23333333333333	0
bin	-0.2	0
bin	-0.16666666666667	0
bin	-0.13333333333333	0
bin	-0.1	0
bin	-0.066666666666667	0
bin	-0.033333333333333	0
bin	0	0
bin	0.033333333333333	0
bin	0.066666666666667	0
bin	0.1	0
bin	0.13333333333333	0
bin	0.16666666666667	0
bin	0.2	0
bin	0.23333333333333	0
bin	0.26666666666667	0
bin	0.3	0
bin	0.33333333333333	0
bin	0.36666666666667	0
bin	0.4	0
bin	0.43333333333333	0
bin	0.46666666666667	0
bin	0.5	0
statistic scenarioPRJP1.node[0].wlan.radio 	bitErrorRate:histogram
field count 0
field mean -nan
field stddev -nan
field sum 0
field sqrsum 0
field min -nan
field max -nan
attr source  bitErrorRate
attr title  "Bit error rate, histogram"
bin	-INF	0
bin	-0.5	0
bin	-0.46666666666667	0
bin	-0.43333333333333	0
bin	-0.4	0
bin	-0.36666666666667	0
bin	-0.33333333333333	0
bin	-0.3	0
bin	-0.26666666666667	0
bin	-0.23333333333333	0
bin	-0.2	0
bin	-0.16666666666667	0
bin	-0.13333333333333	0
bin	-0.1	0
bin	-0.066666666666667	0
bin	-0.033333333333333	0
bin	0	0
bin	0.033333333333333	0
bin	0.066666666666667	0
bin	0.1	0
bin	0.13333333333333	0
bin	0.16666666666667	0
bin	0.2	0
bin	0.23333333333333	0
bin	0.26666666666667	0
bin	0.3	0
bin	0.33333333333333	0
bin	0.36666666666667	0
bin	0.4	0
bin	0.43333333333333	0
bin	0.46666666666667	0
bin	0.5	0
statistic scenarioPRJP1.node[0].wlan.radio 	packetErrorRate:histogram
field count 117498
field mean 0.23114396016096
field stddev 0.41182206155594
field sum 27158.953030992
field sqrsum 26204.814885319
field min 0
field max 1
attr source  packetErrorRate
attr title  "Packet error rate, histogram"
bin	-INF	31481
bin	-7.7710282653243e-11	0
bin	-6.734891163281e-11	0
bin	-5.6987540612378e-11	0
bin	-4.6626169591946e-11	0
bin	-3.6264798571513e-11	0
bin	-2.5903427551081e-11	0
bin	-1.5542056530649e-11	0
bin	-5.1806855102162e-12	67851
bin	5.1806855102162e-12	613
bin	1.5542056530649e-11	279
bin	2.5903427551081e-11	181
bin	3.6264798571513e-11	119
bin	4.6626169591946e-11	111
bin	5.6987540612378e-11	88
bin	6.734891163281e-11	62
bin	7.7710282653243e-11	69
bin	8.8071653673675e-11	65
bin	9.8433024694107e-11	47
bin	1.0879439571454e-10	44
bin	1.1915576673497e-10	46
bin	1.295171377554e-10	41
bin	1.3987850877584e-10	45
bin	1.5023987979627e-10	41
bin	1.606012508167e-10	40
bin	1.7096262183713e-10	35
bin	1.8132399285757e-10	27
bin	1.91685363878e-10	39
bin	2.0204673489843e-10	30
bin	2.1240810591886e-10	28
bin	2.227694769393e-10	25
bin	2.3313084795973e-10	16091
statistic scenarioPRJP1.node[0].wlan.radio 	minSNIR:histogram
field count 117498
field mean 16303.586187443
field stddev 192564.75234454
field sum 1915638769.8522
field sqrsum 4.3881596400846e+15
field min 0.00015335101362084
field max 11209054.737205
attr source  minSNIR
attr title  "Min SNIR, histogram"
bin	-INF	0
bin	-29073.438913239	0
bin	-25196.172860587	0
bin	-21318.906807935	0
bin	-17441.640755283	0
bin	-13564.374702631	0
bin	-9687.1086499795	0
bin	-5809.8425973276	0
bin	-1932.5765446756	105205
bin	1944.6895079763	4506
bin	5821.9555606283	1512
bin	9699.2216132802	1285
bin	13576.487665932	679
bin	17453.753718584	398
bin	21331.019771236	292
bin	25208.285823888	264
bin	29085.55187654	151
bin	32962.817929192	132
bin	36840.083981844	108
bin	40717.350034496	112
bin	44594.616087148	120
bin	48471.8821398	189
bin	52349.148192452	123
bin	56226.414245104	82
bin	60103.680297756	90
bin	63980.946350408	86
bin	67858.21240306	36
bin	71735.478455711	126
bin	75612.744508363	74
bin	79490.010561015	32
bin	83367.276613667	48
bin	87244.542666319	1848
scalar scenarioPRJP1.node[0].lo0.lo 	droppedPkBitError:count 	0
attr interpolationmode  none
attr source  dropPkBitError
attr title  "packets dropped/bit error, count"
scalar scenarioPRJP1.node[0].lo0.lo 	droppedPkBitError:sum(packetBytes) 	0
attr interpolationmode  none
attr source  dropPkBitError
attr title  "packets dropped/bit error, sum(packetBytes)"
scalar scenarioPRJP1.node[0].lo0.lo 	rcvdPkFromHL:count 	21
attr interpolationmode  none
attr source  packetReceivedFromUpper
attr title  "packets received from higher layer, count"
scalar scenarioPRJP1.node[0].lo0.lo 	rcvdPkFromHL:sum(packetBytes) 	1176
attr interpolationmode  none
attr source  packetReceivedFromUpper
attr title  "packets received from higher layer, sum(packetBytes)"
scalar scenarioPRJP1.node[0].lo0.lo 	passedUpPk:count 	21
attr interpolationmode  none
attr source  packetSentToUpper
attr title  "packets passed to higher layer, count"
scalar scenarioPRJP1.node[0].lo0.lo 	passedUpPk:sum(packetBytes) 	1176
attr interpolationmode  none
attr source  packetSentToUpper
attr title  "packets passed to higher layer, sum(packetBytes)"
scalar scenarioPRJP1.node[54].app 	"Total sent" 	5021
scalar scenarioPRJP1.node[54].app 	"Total received" 	479
scalar scenarioPRJP1.node[54].app 	"Total deleted" 	0
scalar scenarioPRJP1.node[54].app 	dropPk:count 	0
attr interpolationmode  none
attr source  dropPk
attr title  "packets dropped, count"
scalar scenarioPRJP1.node[54].app 	dropPk:sum(packetBytes) 	0
attr interpolationmode  none
attr source  dropPk
attr title  "packets dropped, sum(packetBytes)"
scalar scenarioPRJP1.node[54].app 	outOfOrderPk:count 	0
attr interpolationmode  none
attr source  outOfOrderPk
attr title  "packets received out of order, count"
scalar scenarioPRJP1.node[54].app 	outOfOrderPk:sum(packetBytes) 	0
attr interpolationmode  none
attr source  outOfOrderPk
attr title  "packets received out of order, sum(packetBytes)"
scalar scenarioPRJP1.node[54].app 	rcvdPk:count 	479
attr interpolationmode  none
attr source  rcvdPk
attr title  "packets received, count"
scalar scenarioPRJP1.node[54].app 	rcvdPk:sum(packetBytes) 	245248
attr interpolationmode  none
attr source  rcvdPk
attr title  "packets received, sum(packetBytes)"
statistic scenarioPRJP1.node[54].app 	endToEndDelay:histogram
field count 479
field mean 0.093236787662338
field stddev 0.32343435663529
field sum 44.66042129026
field sqrsum 54.167470515648
field min 0.000891011231
field max 2.013669966867
attr interpolationmode  none
attr source  messageAge(rcvdPk)
attr title  "delay, histogram"
attr unit  s
bin	-INF	0
bin	-1.001239673151	0
bin	-0.86762221804993	0
bin	-0.73400476294887	0
bin	-0.6003873078478	0
bin	-0.46676985274673	0
bin	-0.33315239764567	0
bin	-0.1995349425446	0
bin	-0.065917487443534	417
bin	0.067699967657533	32
bin	0.2013174227586	4
bin	0.33493487785967	0
bin	0.46855233296073	3
bin	0.6021697880618	0
bin	0.73578724316287	1
bin	0.86940469826393	2
bin	1.003022153365	9
bin	1.1366396084661	0
bin	1.2702570635671	0
bin	1.4038745186682	0
bin	1.5374919737693	0
bin	1.6711094288703	4
bin	1.8047268839714	1
bin	1.9383443390725	6
bin	2.0719617941735	0
bin	2.2055792492746	0
bin	2.3391967043757	0
bin	2.4728141594767	0
bin	2.6064316145778	0
bin	2.7400490696789	0
bin	2.8736665247799	0
bin	3.007283979881	0
scalar scenarioPRJP1.node[54].app 	sentPk:count 	5021
attr interpolationmode  none
attr source  sentPk
attr title  "packets sent, count"
scalar scenarioPRJP1.node[54].app 	sentPk:sum(packetBytes) 	2570752
attr interpolationmode  none
attr source  sentPk
attr title  "packets sent, sum(packetBytes)"
scalar scenarioPRJP1.node[54].udp 	droppedPkBadChecksum:count 	0
attr interpolationmode  none
attr title  "packets dropped (checksum error), count"
scalar scenarioPRJP1.node[54].udp 	droppedPkWrongPort:count 	0
attr interpolationmode  none
attr title  "packets dropped (wrong port), count"
scalar scenarioPRJP1.node[54].udp 	passedUpPk:count 	479
attr interpolationmode  none
attr title  "packets passed up, count"
scalar scenarioPRJP1.node[54].udp 	rcvdPk:count 	479
attr interpolationmode  none
attr source  rcvdPk
attr title  "packets received, count"
scalar scenarioPRJP1.node[54].udp 	rcvdPk:sum(packetBytes) 	249080
attr interpolationmode  none
attr source  rcvdPk
attr title  "packets received, sum(packetBytes)"
scalar scenarioPRJP1.node[54].udp 	sentPk:count 	5021
attr interpolationmode  none
attr source  sentPk
attr title  "packets sent, count"
scalar scenarioPRJP1.node[54].udp 	sentPk:sum(packetBytes) 	2610920
attr interpolationmode  none
attr source  sentPk
attr title  "packets sent, sum(packetBytes)"
scalar scenarioPRJP1.node[54].networkLayer.arp 	failedARPResolution:count 	12
attr title  "ARP failed resolutions, count"
scalar scenarioPRJP1.node[54].networkLayer.arp 	completedARPResolution:count 	1052
attr title  "ARP completed resolutions, count"
scalar scenarioPRJP1.node[54].networkLayer.arp 	initiatedARPResolution:count 	148
attr title  "ARP initiated resolutions, count"
scalar scenarioPRJP1.node[54].networkLayer.arp 	sentReply:count 	103
attr title  "ARP replies sent, count"
scalar scenarioPRJP1.node[54].networkLayer.arp 	sentReq:count 	236
attr title  "ARP request sent, count"
scalar scenarioPRJP1.node[54].mobility 	startTime 	4.9
scalar scenarioPRJP1.node[54].mobility 	totalTime 	1825.2
scalar scenarioPRJP1.node[54].mobility 	stopTime 	1830.2
scalar scenarioPRJP1.node[54].mobility 	minSpeed 	2.475483890639e-13
scalar scenarioPRJP1.node[54].mobility 	maxSpeed 	19.917799668714
scalar scenarioPRJP1.node[54].mobility 	totalDistance 	20818.792788022
scalar scenarioPRJP1.node[54].mobility 	totalCO2Emission 	5586.4123362954
scalar scenarioPRJP1.node[54].wlan.mgmt 	dataQueueLen:max 	3
attr interpolationmode  sample-hold
attr title  "data queue length, max"
scalar scenarioPRJP1.node[54].wlan.mgmt 	dataQueueLen:timeavg 	0
attr interpolationmode  sample-hold
attr title  "data queue length, timeavg"
scalar scenarioPRJP1.node[54].wlan.mgmt 	dropPkByQueue:count 	0
attr interpolationmode  none
attr source  dropPkByQueue
attr title  "packets dropped by queue, count"
scalar scenarioPRJP1.node[54].wlan.mgmt 	dropPkByQueue:sum(packetBytes) 	0
attr interpolationmode  none
attr source  dropPkByQueue
attr title  "packets dropped by queue, sum(packetBytes)"
scalar scenarioPRJP1.node[54].wlan.mac 	"number of received packets" 	3099
scalar scenarioPRJP1.node[54].wlan.mac 	"number of collisions" 	27525
scalar scenarioPRJP1.node[54].wlan.mac 	"number of internal collisions" 	2
scalar scenarioPRJP1.node[54].wlan.mac 	"number of retry for AC 0" 	6939
scalar scenarioPRJP1.node[54].wlan.mac 	"number of retry for AC 1" 	64
scalar scenarioPRJP1.node[54].wlan.mac 	"number of retry for AC 2" 	0
scalar scenarioPRJP1.node[54].wlan.mac 	"number of retry for AC 3" 	0
scalar scenarioPRJP1.node[54].wlan.mac 	"sent and received bits" 	68240864
scalar scenarioPRJP1.node[54].wlan.mac 	"sent packet within AC 0" 	2824
scalar scenarioPRJP1.node[54].wlan.mac 	"sent packet within AC 1" 	163
scalar scenarioPRJP1.node[54].wlan.mac 	"sent packet within AC 2" 	0
scalar scenarioPRJP1.node[54].wlan.mac 	"sent packet within AC 3" 	0
scalar scenarioPRJP1.node[54].wlan.mac 	"sent in TXOP " 	0
scalar scenarioPRJP1.node[54].wlan.mac 	"sentWithoutRetry AC 0" 	2301
scalar scenarioPRJP1.node[54].wlan.mac 	"sentWithoutRetry AC 1" 	148
scalar scenarioPRJP1.node[54].wlan.mac 	"sentWithoutRetry AC 2" 	0
scalar scenarioPRJP1.node[54].wlan.mac 	"sentWithoutRetry AC 3" 	0
scalar scenarioPRJP1.node[54].wlan.mac 	"numGivenUp AC 0" 	884
scalar scenarioPRJP1.node[54].wlan.mac 	"numGivenUp AC 1" 	4
scalar scenarioPRJP1.node[54].wlan.mac 	"numGivenUp AC 2" 	0
scalar scenarioPRJP1.node[54].wlan.mac 	"numGivenUp AC 3" 	0
scalar scenarioPRJP1.node[54].wlan.mac 	"numDropped AC 0" 	0
scalar scenarioPRJP1.node[54].wlan.mac 	"numDropped AC 1" 	0
scalar scenarioPRJP1.node[54].wlan.mac 	"numDropped AC 2" 	0
scalar scenarioPRJP1.node[54].wlan.mac 	"numDropped AC 3" 	0
scalar scenarioPRJP1.node[54].wlan.mac 	rcvdPkFromLL:count 	118555
attr interpolationmode  none
attr source  packetReceivedFromLower
attr title  "packets received from lower layer, count"
scalar scenarioPRJP1.node[54].wlan.mac 	rcvdPkFromLL:sum(packetBytes) 	74582520
attr interpolationmode  none
attr source  packetReceivedFromLower
attr title  "packets received from lower layer, sum(packetBytes)"
scalar scenarioPRJP1.node[54].wlan.mac 	sentDownPk:count 	20854
attr interpolationmode  none
attr source  packetSentToLower
attr title  "packets sent to lower layer, count"
scalar scenarioPRJP1.node[54].wlan.mac 	sentDownPk:sum(packetBytes) 	13031398
attr interpolationmode  none
attr source  packetSentToLower
attr title  "packets sent to lower layer, sum(packetBytes)"
scalar scenarioPRJP1.node[54].wlan.mac 	rcvdPkFromHL:count 	10754
attr interpolationmode  none
attr source  packetReceivedFromUpper
attr title  "packets received from higher layer, count"
scalar scenarioPRJP1.node[54].wlan.mac 	rcvdPkFromHL:sum(packetBytes) 	9038124
attr interpolationmode  none
attr source  packetReceivedFromUpper
attr title  "packets received from higher layer, sum(packetBytes)"
scalar scenarioPRJP1.node[54].wlan.mac 	passedUpPk:count 	38890
attr interpolationmode  none
attr source  packetSentToUpper
attr title  "packets passed to higher layer, count"
scalar scenarioPRJP1.node[54].wlan.mac 	passedUpPk:sum(packetBytes) 	37935824
attr interpolationmode  none
attr source  packetSentToUpper
attr title  "packets passed to higher layer, sum(packetBytes)"
statistic scenarioPRJP1.node[54].wlan.radio 	radioChannel:histogram
field count 1
field mean 3
field stddev -nan
field sum 3
field sqrsum 9
field min 3
field max 3
attr interpolationmode  sample-hold
attr source  radioChannelChanged
attr title  "Radio channel, histogram"
bin	-INF	0
bin	2	0
bin	3	1
bin	4	0
scalar scenarioPRJP1.node[54].wlan.radio 	transmissionState:count 	83416
[...]
attr interpolationmode  none
attr source  packetSentToUpper
attr title  "packets passed to higher layer, sum(packetBytes)"
statistic scenarioPRJP1.node[37].wlan.radio 	radioChannel:histogram
field count 1
field mean 3
field stddev -nan
field sum 3
field sqrsum 9
field min 3
field max 3
attr interpolationmode  sample-hold
attr source  radioChannelChanged
attr title  "Radio channel, histogram"
bin	-INF	0
bin	2	0
bin	3	1
bin	4	0
scalar scenarioPRJP1.node[37].wlan.radio 	transmissionState:count 	73696
attr interpolationmode  sample-hold
attr source  transmissionStateChanged
attr title  "Radio transmission state, count"
scalar scenarioPRJP1.node[37].wlan.radio 	receptionState:count 	468088
attr interpolationmode  sample-hold
attr source  receptionStateChanged
attr title  "Radio reception state, count"
scalar scenarioPRJP1.node[37].wlan.radio 	radioMode:count 	36850
attr interpolationmode  sample-hold
attr source  radioModeChanged
attr title  "Radio mode, count"
statistic scenarioPRJP1.node[37].wlan.radio 	symbolErrorRate:histogram
field count 0
field mean -nan
field stddev -nan
field sum 0
field sqrsum 0
field min -nan
field max -nan
attr source  symbolErrorRate
attr title  "Symbol error rate, histogram"
bin	-INF	0
bin	-0.5	0
bin	-0.46666666666667	0
bin	-0.43333333333333	0
bin	-0.4	0
bin	-0.36666666666667	0
bin	-0.33333333333333	0
bin	-0.3	0
bin	-0.26666666666667	0
bin	-0.23333333333333	0
bin	-0.2	0
bin	-0.16666666666667	0
bin	-0.13333333333333	0
bin	-0.1	0
bin	-0.066666666666667	0
bin	-0.033333333333333	0
bin	0	0
bin	0.033333333333333	0
bin	0.066666666666667	0
bin	0.1	0
bin	0.13333333333333	0
bin	0.16666666666667	0
bin	0.2	0
bin	0.23333333333333	0
bin	0.26666666666667	0
bin	0.3	0
bin	0.33333333333333	0
bin	0.36666666666667	0
bin	0.4	0
bin	0.43333333333333	0
bin	0.46666666666667	0
bin	0.5	0
statistic scenarioPRJP1.node[37].wlan.radio 	bitErrorRate:histogram
field count 0
field mean -nan
field stddev -nan
field sum 0
field sqrsum 0
field min -nan
field max -nan
attr source  bitErrorRate
attr title  "Bit error rate, histogram"
bin	-INF	0
bin	-0.5	0
bin	-0.46666666666667	0
bin	-0.43333333333333	0
bin	-0.4	0
bin	-0.36666666666667	0
bin	-0.33333333333333	0
bin	-0.3	0
bin	-0.26666666666667	0
bin	-0.23333333333333	0
bin	-0.2	0
bin	-0.16666666666667	0
bin	-0.13333333333333	0
bin	-0.1	0
bin	-0.066666666666667	0
bin	-0.033333333333333	0
bin	0	0
bin	0.033333333333333	0
bin	0.066666666666667	0
bin	0.1	0
bin	0.13333333333333	0
bin	0.16666666666667	0
bin	0.2	0
bin	0.23333333333333	0
bin	0.26666666666667	0
bin	0.3	0
bin	0.33333333333333	0
bin	0.36666666666667	0
bin	0.4	0
bin	0.43333333333333	0
bin	0.46666666666667	0
bin	0.5	0
statistic scenarioPRJP1.node[37].wlan.radio 	packetErrorRate:histogram
field count 98153
field mean 0.25218433555326
field stddev 0.42477314203296
field sum 24752.649087559
field sqrsum 23952.013835973
field min 0
field max 1
attr source  packetErrorRate
attr title  "Packet error rate, histogram"
bin	-INF	0
bin	-2.6142741633706e-06	0
bin	-2.2657042749212e-06	0
bin	-1.9171343864717e-06	0
bin	-1.5685644980223e-06	0
bin	-1.2199946095729e-06	0
bin	-8.7142472112352e-07	0
bin	-5.2285483267411e-07	0
bin	-1.742849442247e-07	59650
bin	1.742849442247e-07	752
bin	5.2285483267411e-07	343
bin	8.7142472112352e-07	248
bin	1.2199946095729e-06	162
bin	1.5685644980223e-06	122
bin	1.9171343864717e-06	111
bin	2.2657042749212e-06	95
bin	2.6142741633706e-06	95
bin	2.96284405182e-06	83
bin	3.3114139402694e-06	72
bin	3.6599838287188e-06	59
bin	4.0085537171682e-06	52
bin	4.3571236056176e-06	72
bin	4.705693494067e-06	50
bin	5.0542633825164e-06	49
bin	5.4028332709658e-06	73
bin	5.7514031594152e-06	34
bin	6.0999730478647e-06	28
bin	6.4485429363141e-06	46
bin	6.7971128247635e-06	38
bin	7.1456827132129e-06	29
bin	7.4942526016623e-06	48
bin	7.8428224901117e-06	35842
statistic scenarioPRJP1.node[37].wlan.radio 	minSNIR:histogram
field count 98153
field mean 11031.94638314
field stddev 138734.13154081
field sum 1082818633.3444
field sqrsum 1.901092772242e+15
field min 0.00033160462744236
field max 3690122.2507112
attr source  minSNIR
attr title  "Min SNIR, histogram"
bin	-INF	0
bin	-71830.902373192	0
bin	-62252.896457428	0
bin	-52674.890541663	0
bin	-43096.884625899	0
bin	-33518.878710135	0
bin	-23940.87279437	0
bin	-14362.866878606	0
bin	-4784.8609628414	92145
bin	4793.144952923	2375
bin	14371.150868687	622
bin	23949.156784452	514
bin	33527.162700216	202
bin	43105.168615981	195
bin	52683.174531745	122
bin	62261.18044751	133
bin	71839.186363274	307
bin	81417.192279038	206
bin	90995.198194803	142
bin	100573.20411057	36
bin	110151.21002633	31
bin	119729.2159421	36
bin	129307.22185786	53
bin	138885.22777362	30
bin	148463.23368939	79
bin	158041.23960515	17
bin	167619.24552092	49
bin	177197.25143668	20
bin	186775.25735245	18
bin	196353.26326821	11
bin	205931.26918398	45
bin	215509.27509974	765
scalar scenarioPRJP1.node[37].lo0.lo 	droppedPkBitError:count 	0
attr interpolationmode  none
attr source  dropPkBitError
attr title  "packets dropped/bit error, count"
scalar scenarioPRJP1.node[37].lo0.lo 	droppedPkBitError:sum(packetBytes) 	0
attr interpolationmode  none
attr source  dropPkBitError
attr title  "packets dropped/bit error, sum(packetBytes)"
scalar scenarioPRJP1.node[37].lo0.lo 	rcvdPkFromHL:count 	17
attr interpolationmode  none
attr source  packetReceivedFromUpper
attr title  "packets received from higher layer, count"
scalar scenarioPRJP1.node[37].lo0.lo 	rcvdPkFromHL:sum(packetBytes) 	952
attr interpolationmode  none
attr source  packetReceivedFromUpper
attr title  "packets received from higher layer, sum(packetBytes)"
scalar scenarioPRJP1.node[37].lo0.lo 	passedUpPk:count 	17
attr interpolationmode  none
attr source  packetSentToUpper
attr title  "packets passed to higher layer, count"
scalar scenarioPRJP1.node[37].lo0.lo 	passedUpPk:sum(packetBytes) 	952
attr interpolationmode  none
attr source  packetSentToUpper
attr title  "packets passed to higher layer, sum(packetBytes)"
scalar scenarioPRJP1.node[71].app 	"Total sent" 	5037
scalar scenarioPRJP1.node[71].app 	"Total received" 	444
scalar scenarioPRJP1.node[71].app 	"Total deleted" 	0
scalar scenarioPRJP1.node[71].app 	dropPk:count 	0
attr interpolationmode  none
attr source  dropPk
attr title  "packets dropped, count"
scalar scenarioPRJP1.node[71].app 	dropPk:sum(packetBytes) 	0
attr interpolationmode  none
attr source  dropPk
attr title  "packets dropped, sum(packetBytes)"
scalar scenarioPRJP1.node[71].app 	outOfOrderPk:count 	0
attr interpolationmode  none
attr source  outOfOrderPk
attr title  "packets received out of order, count"
scalar scenarioPRJP1.node[71].app 	outOfOrderPk:sum(packetBytes) 	0
attr interpolationmode  none
attr source  outOfOrderPk
attr title  "packets received out of order, sum(packetBytes)"
scalar scenarioPRJP1.node[71].app 	rcvdPk:count 	444
attr interpolationmode  none
attr source  rcvdPk
attr title  "packets received, count"
scalar scenarioPRJP1.node[71].app 	rcvdPk:sum(packetBytes) 	227328
attr interpolationmode  none
attr source  rcvdPk
attr title  "packets received, sum(packetBytes)"
statistic scenarioPRJP1.node[71].app 	endToEndDelay:histogram
field count 444
field mean 0.11067143235295
field stddev 0.34393033626102
field sum 49.138115964708
field sqrsum 57.839803433814
field min 0.000891011007
field max 2.005343311703
attr interpolationmode  none
attr source  messageAge(rcvdPk)
attr title  "delay, histogram"
attr unit  s
bin	-INF	0
bin	-0.999596870144	0
bin	-0.8661984844016	0
bin	-0.7328000986592	0
bin	-0.5994017129168	0
bin	-0.4660033271744	0
bin	-0.332604941432	0
bin	-0.1992065556896	0
bin	-0.0658081699472	382
bin	0.0675902157952	27
bin	0.2009886015376	2
bin	0.33438698728	0
bin	0.4677853730224	2
bin	0.6011837587648	0
bin	0.7345821445072	2
bin	0.8679805302496	1
bin	1.001378915992	15
bin	1.1347773017344	3
bin	1.2681756874768	1
bin	1.4015740732192	2
bin	1.5349724589616	0
bin	1.668370844704	0
bin	1.8017692304464	0
bin	1.9351676161888	7
bin	2.0685660019312	0
bin	2.2019643876736	0
bin	2.335362773416	0
bin	2.4687611591584	0
bin	2.6021595449008	0
bin	2.7355579306432	0
bin	2.8689563163856	0
bin	3.002354702128	0
scalar scenarioPRJP1.node[71].app 	sentPk:count 	5037
attr interpolationmode  none
attr source  sentPk
attr title  "packets sent, count"
scalar scenarioPRJP1.node[71].app 	sentPk:sum(packetBytes) 	2578944
attr interpolationmode  none
attr source  sentPk
attr title  "packets sent, sum(packetBytes)"
scalar scenarioPRJP1.node[71].udp 	droppedPkBadChecksum:count 	0
attr interpolationmode  none
attr title  "packets dropped (checksum error), count"
scalar scenarioPRJP1.node[71].udp 	droppedPkWrongPort:count 	0
attr interpolationmode  none
attr title  "packets dropped (wrong port), count"
scalar scenarioPRJP1.node[71].udp 	passedUpPk:count 	444
attr interpolationmode  none
attr title  "packets passed up, count"
scalar scenarioPRJP1.node[71].udp 	rcvdPk:count 	444
attr interpolationmode  none
attr source  rcvdPk
attr title  "packets received, count"
scalar scenarioPRJP1.node[71].udp 	rcvdPk:sum(packetBytes) 	230880
attr interpolationmode  none
attr source  rcvdPk
attr title  "packets received, sum(packetBytes)"
scalar scenarioPRJP1.node[71].udp 	sentPk:count 	5037
attr interpolationmode  none
attr source  sentPk
attr title  "packets sent, count"
scalar scenarioPRJP1.node[71].udp 	sentPk:sum(packetBytes) 	2619240
attr interpolationmode  none
attr source  sentPk
attr title  "packets sent, sum(packetBytes)"
scalar scenarioPRJP1.node[71].networkLayer.arp 	failedARPResolution:count 	12
attr title  "ARP failed resolutions, count"
scalar scenarioPRJP1.node[71].networkLayer.arp 	completedARPResolution:count 	1062
attr title  "ARP completed resolutions, count"
scalar scenarioPRJP1.node[71].networkLayer.arp 	initiatedARPResolution:count 	114
attr title  "ARP initiated resolutions, count"
scalar scenarioPRJP1.node[71].networkLayer.arp 	sentReply:count 	108
attr title  "ARP replies sent, count"
scalar scenarioPRJP1.node[71].networkLayer.arp 	sentReq:count 	189
attr title  "ARP request sent, count"
scalar scenarioPRJP1.node[71].mobility 	startTime 	7.3
scalar scenarioPRJP1.node[71].mobility 	totalTime 	1892.7
scalar scenarioPRJP1.node[71].mobility 	stopTime 	1900
scalar scenarioPRJP1.node[71].mobility 	minSpeed 	2.475449420335e-13
scalar scenarioPRJP1.node[71].mobility 	maxSpeed 	21.67195522378
scalar scenarioPRJP1.node[71].mobility 	totalDistance 	18714.084700003
scalar scenarioPRJP1.node[71].mobility 	totalCO2Emission 	5733.391572191
scalar scenarioPRJP1.node[71].wlan.mgmt 	dataQueueLen:max 	3
attr interpolationmode  sample-hold
attr title  "data queue length, max"
scalar scenarioPRJP1.node[71].wlan.mgmt 	dataQueueLen:timeavg 	0
attr interpolationmode  sample-hold
attr title  "data queue length, timeavg"
scalar scenarioPRJP1.node[71].wlan.mgmt 	dropPkByQueue:count 	0
attr interpolationmode  none
attr source  dropPkByQueue
attr title  "packets dropped by queue, count"
scalar scenarioPRJP1.node[71].wlan.mgmt 	dropPkByQueue:sum(packetBytes) 	0
attr interpolationmode  none
attr source  dropPkByQueue
attr title  "packets dropped by queue, sum(packetBytes)"
scalar scenarioPRJP1.node[71].wlan.mac 	"number of received packets" 	2063
scalar scenarioPRJP1.node[71].wlan.mac 	"number of collisions" 	22976
scalar scenarioPRJP1.node[71].wlan.mac 	"number of internal collisions" 	3
scalar scenarioPRJP1.node[71].wlan.mac 	"number of retry for AC 0" 	5333
scalar scenarioPRJP1.node[71].wlan.mac 	"number of retry for AC 1" 	23
scalar scenarioPRJP1.node[71].wlan.mac 	"number of retry for AC 2" 	0
scalar scenarioPRJP1.node[71].wlan.mac 	"number of retry for AC 3" 	0
scalar scenarioPRJP1.node[71].wlan.mac 	"sent and received bits" 	66919936
scalar scenarioPRJP1.node[71].wlan.mac 	"sent packet within AC 0" 	2079
scalar scenarioPRJP1.node[71].wlan.mac 	"sent packet within AC 1" 	105
scalar scenarioPRJP1.node[71].wlan.mac 	"sent packet within AC 2" 	0
scalar scenarioPRJP1.node[71].wlan.mac 	"sent packet within AC 3" 	0
scalar scenarioPRJP1.node[71].wlan.mac 	"sent in TXOP " 	0
scalar scenarioPRJP1.node[71].wlan.mac 	"sentWithoutRetry AC 0" 	1618
scalar scenarioPRJP1.node[71].wlan.mac 	"sentWithoutRetry AC 1" 	97
scalar scenarioPRJP1.node[71].wlan.mac 	"sentWithoutRetry AC 2" 	0
scalar scenarioPRJP1.node[71].wlan.mac 	"sentWithoutRetry AC 3" 	0
scalar scenarioPRJP1.node[71].wlan.mac 	"numGivenUp AC 0" 	640
scalar scenarioPRJP1.node[71].wlan.mac 	"numGivenUp AC 1" 	0
scalar scenarioPRJP1.node[71].wlan.mac 	"numGivenUp AC 2" 	0
scalar scenarioPRJP1.node[71].wlan.mac 	"numGivenUp AC 3" 	0
scalar scenarioPRJP1.node[71].wlan.mac 	"numDropped AC 0" 	0
scalar scenarioPRJP1.node[71].wlan.mac 	"numDropped AC 1" 	0
scalar scenarioPRJP1.node[71].wlan.mac 	"numDropped AC 2" 	0
scalar scenarioPRJP1.node[71].wlan.mac 	"numDropped AC 3" 	0
scalar scenarioPRJP1.node[71].wlan.mac 	rcvdPkFromLL:count 	114559
attr interpolationmode  none
attr source  packetReceivedFromLower
attr title  "packets received from lower layer, count"
scalar scenarioPRJP1.node[71].wlan.mac 	rcvdPkFromLL:sum(packetBytes) 	72839694
attr interpolationmode  none
attr source  packetReceivedFromLower
attr title  "packets received from lower layer, sum(packetBytes)"
scalar scenarioPRJP1.node[71].wlan.mac 	sentDownPk:count 	17345
attr interpolationmode  none
attr source  packetSentToLower
attr title  "packets sent to lower layer, count"
scalar scenarioPRJP1.node[71].wlan.mac 	sentDownPk:sum(packetBytes) 	11764566
attr interpolationmode  none
attr source  packetSentToLower
attr title  "packets sent to lower layer, sum(packetBytes)"
scalar scenarioPRJP1.node[71].wlan.mac 	rcvdPkFromHL:count 	9929
attr interpolationmode  none
attr source  packetReceivedFromUpper
attr title  "packets received from higher layer, count"
scalar scenarioPRJP1.node[71].wlan.mac 	rcvdPkFromHL:sum(packetBytes) 	8730560
attr interpolationmode  none
attr source  packetReceivedFromUpper
attr title  "packets received from higher layer, sum(packetBytes)"
scalar scenarioPRJP1.node[71].wlan.mac 	passedUpPk:count 	38617
attr interpolationmode  none
attr source  packetSentToUpper
attr title  "packets passed to higher layer, count"
scalar scenarioPRJP1.node[71].wlan.mac 	passedUpPk:sum(packetBytes) 	38121280
attr interpolationmode  none
attr source  packetSentToUpper
attr title  "packets passed to higher layer, sum(packetBytes)"
statistic scenarioPRJP1.node[71].wlan.radio 	radioChannel:histogram
field count 1
field mean 3
field stddev -nan
field sum 3
field sqrsum 9
field min 3
field max 3
attr interpolationmode  sample-hold
attr source  radioChannelChanged
attr title  "Radio channel, histogram"
bin	-INF	0
bin	2	0
bin	3	1
bin	4	0
scalar scenarioPRJP1.node[71].wlan.radio 	transmissionState:count 	69380
attr interpolationmode  sample-hold
attr source  transmissionStateChanged
attr title  "Radio transmission state, count"
scalar scenarioPRJP1.node[71].wlan.radio 	receptionState:count 	495195
attr interpolationmode  sample-hold
attr source  receptionStateChanged
attr title  "Radio reception state, count"
scalar scenarioPRJP1.node[71].wlan.radio 	radioMode:count 	34692
attr interpolationmode  sample-hold
attr source  radioModeChanged
attr title  "Radio mode, count"
statistic scenarioPRJP1.node[71].wlan.radio 	symbolErrorRate:histogram
field count 0
field mean -nan
field stddev -nan
field sum 0
field sqrsum 0
field min -nan
field max -nan
attr source  symbolErrorRate
attr title  "Symbol error rate, histogram"
bin	-INF	0
bin	-0.5	0
bin	-0.46666666666667	0
bin	-0.43333333333333	0
bin	-0.4	0
bin	-0.36666666666667	0
bin	-0.33333333333333	0
bin	-0.3	0
bin	-0.26666666666667	0
bin	-0.23333333333333	0
bin	-0.2	0
bin	-0.16666666666667	0
bin	-0.13333333333333	0
bin	-0.1	0
bin	-0.066666666666667	0
bin	-0.033333333333333	0
bin	0	0
bin	0.033333333333333	0
bin	0.066666666666667	0
bin	0.1	0
bin	0.13333333333333	0
bin	0.16666666666667	0
bin	0.2	0
bin	0.23333333333333	0
bin	0.26666666666667	0
bin	0.3	0
bin	0.33333333333333	0
bin	0.36666666666667	0
bin	0.4	0
bin	0.43333333333333	0
bin	0.46666666666667	0
bin	0.5	0
statistic scenarioPRJP1.node[71].wlan.radio 	bitErrorRate:histogram
field count 0
field mean -nan
field stddev -nan
field sum 0
field sqrsum 0
field min -nan
field max -nan
attr source  bitErrorRate
attr title  "Bit error rate, histogram"
bin	-INF	0
bin	-0.5	0
bin	-0.46666666666667	0
bin	-0.43333333333333	0
bin	-0.4	0
bin	-0.36666666666667	0
bin	-0.33333333333333	0
bin	-0.3	0
bin	-0.26666666666667	0
bin	-0.23333333333333	0
bin	-0.2	0
bin	-0.16666666666667	0
bin	-0.13333333333333	0
bin	-0.1	0
bin	-0.066666666666667	0
bin	-0.033333333333333	0
bin	0	0
bin	0.033333333333333	0
bin	0.066666666666667	0
bin	0.1	0
bin	0.13333333333333	0
bin	0.16666666666667	0
bin	0.2	0
bin	0.23333333333333	0
bin	0.26666666666667	0
bin	0.3	0
bin	0.33333333333333	0
bin	0.36666666666667	0
bin	0.4	0
bin	0.43333333333333	0
bin	0.46666666666667	0
bin	0.5	0
statistic scenarioPRJP1.node[71].wlan.radio 	packetErrorRate:histogram
field count 114559
field mean 0.18819374683325
field stddev 0.38130583271989
field sum 21559.28744347
field sqrsum 20713.384751631
field min 0
field max 1
attr source  packetErrorRate
attr title  "Packet error rate, histogram"
bin	-INF	0
bin	-0.5	0
bin	-0.46666666666667	0
bin	-0.43333333333333	0
bin	-0.4	0
bin	-0.36666666666667	0
bin	-0.33333333333333	0
bin	-0.3	0
bin	-0.26666666666667	0
bin	-0.23333333333333	0
bin	-0.2	0
bin	-0.16666666666667	0
bin	-0.13333333333333	0
bin	-0.1	0
bin	-0.066666666666667	0
bin	-0.033333333333333	0
bin	0	89606
bin	0.033333333333333	859
bin	0.066666666666667	496
bin	0.1	343
bin	0.13333333333333	284
bin	0.16666666666667	264
bin	0.2	219
bin	0.23333333333333	183
bin	0.26666666666667	182
bin	0.3	153
bin	0.33333333333333	141
bin	0.36666666666667	131
bin	0.4	128
bin	0.43333333333333	114
bin	0.46666666666667	137
bin	0.5	21319
statistic scenarioPRJP1.node[71].wlan.radio 	minSNIR:histogram
field count 114559
field mean 17739.798625462
field stddev 183188.40288635
field sum 2032253590.7343
field sqrsum 3.8803880969407e+15
field min 0.00027270445064826
field max 5208718.06374
attr source  minSNIR
attr title  "Min SNIR, histogram"
bin	-INF	0
bin	-85695.664712953	0
bin	-74268.192622782	0
bin	-62840.720532611	0
bin	-51413.24844244	0
bin	-39985.776352268	0
bin	-28558.304262097	0
bin	-17130.832171926	0
bin	-5703.3600817549	105188
bin	5724.1120084163	3929
bin	17151.584098588	1100
bin	28579.056188759	587
bin	40006.52827893	410
bin	51434.000369101	325
bin	62861.472459272	196
bin	74288.944549443	253
bin	85716.416639615	380
bin	97143.888729786	118
bin	108571.36081996	142
bin	119998.83291013	111
bin	131426.3050003	65
bin	142853.77709047	72
bin	154281.24918064	57
bin	165708.72127081	108
bin	177136.19336098	142
bin	188563.66545116	43
bin	199991.13754133	40
bin	211418.6096315	31
bin	222846.08172167	35
bin	234273.55381184	34
bin	245701.02590201	48
bin	257128.49799218	1145
scalar scenarioPRJP1.node[71].lo0.lo 	droppedPkBitError:count 	0
attr interpolationmode  none
attr source  dropPkBitError
attr title  "packets dropped/bit error, count"
scalar scenarioPRJP1.node[71].lo0.lo 	droppedPkBitError:sum(packetBytes) 	0
attr interpolationmode  none
attr source  dropPkBitError
attr title  "packets dropped/bit error, sum(packetBytes)"
scalar scenarioPRJP1.node[71].lo0.lo 	rcvdPkFromHL:count 	19
attr interpolationmode  none
attr source  packetReceivedFromUpper
attr title  "packets received from higher layer, count"
scalar scenarioPRJP1.node[71].lo0.lo 	rcvdPkFromHL:sum(packetBytes) 	1064
attr interpolationmode  none
attr source  packetReceivedFromUpper
attr title  "packets received from higher layer, sum(packetBytes)"
scalar scenarioPRJP1.node[71].lo0.lo 	passedUpPk:count 	19
attr interpolationmode  none
attr source  packetSentToUpper
attr title  "packets passed to higher layer, count"
scalar scenarioPRJP1.node[71].lo0.lo 	passedUpPk:sum(packetBytes) 	1064
attr interpolationmode  none
attr source  packetSentToUpper
attr title  "packets passed to higher layer, sum(packetBytes)"
