version 2
run AODVRouting-LNS-10n-20-20150817-22:44:25-16367
attr configname AODVRouting-LNS-10n
attr datetime 20150817-22:44:25
attr experiment AODVRouting-LNS-10n
attr inifile omnetpp.ini
attr iterationvars ""
attr iterationvars2 $repetition=20
attr measurement ""
attr network Prj_Part1_propag.scenarioPRJP1
attr processid 16367
attr repetition 20
attr replication #20
attr resultdir results
attr runnumber 20
attr seedset 20

scalar scenarioPRJP1.radioMedium.propagation 	"Arrival computation count" 	946449
scalar scenarioPRJP1.radioMedium 	"transmission count" 	105161
scalar scenarioPRJP1.radioMedium 	"radio frame send count" 	946449
scalar scenarioPRJP1.radioMedium 	"reception computation count" 	943586
scalar scenarioPRJP1.radioMedium 	"interference computation count" 	2887245
scalar scenarioPRJP1.radioMedium 	"reception decision computation count" 	116740
scalar scenarioPRJP1.radioMedium 	"listening decision computation count" 	1836396
scalar scenarioPRJP1.radioMedium 	"reception cache hit" 	71.558654664619
attr unit  %
scalar scenarioPRJP1.radioMedium 	"interference cache hit" 	50
attr unit  %
scalar scenarioPRJP1.radioMedium 	"noise cache hit" 	0
attr unit  %
scalar scenarioPRJP1.radioMedium 	"snir cache hit" 	0
attr unit  %
scalar scenarioPRJP1.radioMedium 	"reception decision cache hit" 	0
attr unit  %
scalar scenarioPRJP1.node[0].app 	"Total sent" 	2607
scalar scenarioPRJP1.node[0].app 	"Total received" 	128
scalar scenarioPRJP1.node[0].app 	"Total deleted" 	122
scalar scenarioPRJP1.node[0].app 	dropPk:count 	122
attr interpolationmode  none
attr source  dropPk
attr title  "packets dropped, count"
scalar scenarioPRJP1.node[0].app 	dropPk:sum(packetBytes) 	62464
attr interpolationmode  none
attr source  dropPk
attr title  "packets dropped, sum(packetBytes)"
scalar scenarioPRJP1.node[0].app 	outOfOrderPk:count 	130
attr interpolationmode  none
attr source  outOfOrderPk
attr title  "packets received out of order, count"
scalar scenarioPRJP1.node[0].app 	outOfOrderPk:sum(packetBytes) 	66560
attr interpolationmode  none
attr source  outOfOrderPk
attr title  "packets received out of order, sum(packetBytes)"
scalar scenarioPRJP1.node[0].app 	rcvdPk:count 	128
attr interpolationmode  none
attr source  rcvdPk
attr title  "packets received, count"
scalar scenarioPRJP1.node[0].app 	rcvdPk:sum(packetBytes) 	65536
attr interpolationmode  none
attr source  rcvdPk
attr title  "packets received, sum(packetBytes)"
statistic scenarioPRJP1.node[0].app 	endToEndDelay:histogram
field count 128
field mean 3.3059041944444
field stddev 5.5859503090534
field sum 423.15573688888
field sqrsum 5361.6731140963
field min 0.000945073751
field max 19.591923059085
attr interpolationmode  none
attr source  messageAge(rcvdPk)
attr title  "delay, histogram"
attr unit  s
bin	-INF	0
bin	-9.2495873655155	0
bin	-8.01618304028	0
bin	-6.7827787150444	0
bin	-5.5493743898089	0
bin	-4.3159700645734	0
bin	-3.0825657393378	0
bin	-1.8491614141023	0
bin	-0.61575708886676	81
bin	0.61764723636877	7
bin	1.8510515616043	1
bin	3.0844558868398	3
bin	4.3178602120754	3
bin	5.5512645373109	6
bin	6.7846688625464	3
bin	8.018073187782	5
bin	9.2514775130175	1
bin	10.484881838253	1
bin	11.718286163489	4
bin	12.951690488724	1
bin	14.18509481396	4
bin	15.418499139195	1
bin	16.651903464431	2
bin	17.885307789666	4
bin	19.118712114902	1
bin	20.352116440137	0
bin	21.585520765373	0
bin	22.818925090608	0
bin	24.052329415844	0
bin	25.285733741079	0
bin	26.519138066315	0
bin	27.75254239155	0
scalar scenarioPRJP1.node[0].app 	sentPk:count 	2607
attr interpolationmode  none
attr source  sentPk
attr title  "packets sent, count"
scalar scenarioPRJP1.node[0].app 	sentPk:sum(packetBytes) 	1334784
attr interpolationmode  none
attr source  sentPk
attr title  "packets sent, sum(packetBytes)"
scalar scenarioPRJP1.node[0].udp 	droppedPkBadChecksum:count 	0
attr interpolationmode  none
attr title  "packets dropped (checksum error), count"
scalar scenarioPRJP1.node[0].udp 	droppedPkWrongPort:count 	0
attr interpolationmode  none
attr title  "packets dropped (wrong port), count"
scalar scenarioPRJP1.node[0].udp 	passedUpPk:count 	380
attr interpolationmode  none
attr title  "packets passed up, count"
scalar scenarioPRJP1.node[0].udp 	rcvdPk:count 	380
attr interpolationmode  none
attr source  rcvdPk
attr title  "packets received, count"
scalar scenarioPRJP1.node[0].udp 	rcvdPk:sum(packetBytes) 	197600
attr interpolationmode  none
attr source  rcvdPk
attr title  "packets received, sum(packetBytes)"
scalar scenarioPRJP1.node[0].udp 	sentPk:count 	2607
attr interpolationmode  none
attr source  sentPk
attr title  "packets sent, count"
scalar scenarioPRJP1.node[0].udp 	sentPk:sum(packetBytes) 	1355640
attr interpolationmode  none
attr source  sentPk
attr title  "packets sent, sum(packetBytes)"
scalar scenarioPRJP1.node[0].networkLayer.arp 	failedARPResolution:count 	81
attr title  "ARP failed resolutions, count"
scalar scenarioPRJP1.node[0].networkLayer.arp 	completedARPResolution:count 	123
attr title  "ARP completed resolutions, count"
scalar scenarioPRJP1.node[0].networkLayer.arp 	initiatedARPResolution:count 	96
attr title  "ARP initiated resolutions, count"
scalar scenarioPRJP1.node[0].networkLayer.arp 	sentReply:count 	9
attr title  "ARP replies sent, count"
scalar scenarioPRJP1.node[0].networkLayer.arp 	sentReq:count 	271
attr title  "ARP request sent, count"
scalar scenarioPRJP1.node[0].mobility 	startTime 	0.1
scalar scenarioPRJP1.node[0].mobility 	totalTime 	949.9
scalar scenarioPRJP1.node[0].mobility 	stopTime 	950
scalar scenarioPRJP1.node[0].mobility 	minSpeed 	2.4756028697842e-13
scalar scenarioPRJP1.node[0].mobility 	maxSpeed 	19.888248247664
scalar scenarioPRJP1.node[0].mobility 	totalDistance 	8945.2241215901
scalar scenarioPRJP1.node[0].mobility 	totalCO2Emission 	2553.8002238376
scalar scenarioPRJP1.node[0].wlan[0].mgmt 	dataQueueLen:max 	100
attr interpolationmode  sample-hold
attr title  "data queue length, max"
scalar scenarioPRJP1.node[0].wlan[0].mgmt 	dataQueueLen:timeavg 	0.046449815004817
attr interpolationmode  sample-hold
attr title  "data queue length, timeavg"
scalar scenarioPRJP1.node[0].wlan[0].mgmt 	dropPkByQueue:count 	16
attr interpolationmode  none
attr source  dropPkByQueue
attr title  "packets dropped by queue, count"
scalar scenarioPRJP1.node[0].wlan[0].mgmt 	dropPkByQueue:sum(packetBytes) 	9216
attr interpolationmode  none
attr source  dropPkByQueue
attr title  "packets dropped by queue, sum(packetBytes)"
scalar scenarioPRJP1.node[0].wlan[0].mac 	"number of received packets" 	1768
scalar scenarioPRJP1.node[0].wlan[0].mac 	"number of collisions" 	163
scalar scenarioPRJP1.node[0].wlan[0].mac 	"number of internal collisions" 	0
scalar scenarioPRJP1.node[0].wlan[0].mac 	"number of retry for AC 0" 	4017
scalar scenarioPRJP1.node[0].wlan[0].mac 	"number of retry for AC 1" 	0
scalar scenarioPRJP1.node[0].wlan[0].mac 	"number of retry for AC 2" 	0
scalar scenarioPRJP1.node[0].wlan[0].mac 	"number of retry for AC 3" 	0
scalar scenarioPRJP1.node[0].wlan[0].mac 	"sent and received bits" 	2015072
scalar scenarioPRJP1.node[0].wlan[0].mac 	"sent packet within AC 0" 	119
scalar scenarioPRJP1.node[0].wlan[0].mac 	"sent packet within AC 1" 	0
scalar scenarioPRJP1.node[0].wlan[0].mac 	"sent packet within AC 2" 	0
scalar scenarioPRJP1.node[0].wlan[0].mac 	"sent packet within AC 3" 	0
scalar scenarioPRJP1.node[0].wlan[0].mac 	"sent in TXOP " 	0
scalar scenarioPRJP1.node[0].wlan[0].mac 	"sentWithoutRetry AC 0" 	107
scalar scenarioPRJP1.node[0].wlan[0].mac 	"sentWithoutRetry AC 1" 	0
scalar scenarioPRJP1.node[0].wlan[0].mac 	"sentWithoutRetry AC 2" 	0
scalar scenarioPRJP1.node[0].wlan[0].mac 	"sentWithoutRetry AC 3" 	0
scalar scenarioPRJP1.node[0].wlan[0].mac 	"numGivenUp AC 0" 	667
scalar scenarioPRJP1.node[0].wlan[0].mac 	"numGivenUp AC 1" 	0
scalar scenarioPRJP1.node[0].wlan[0].mac 	"numGivenUp AC 2" 	0
scalar scenarioPRJP1.node[0].wlan[0].mac 	"numGivenUp AC 3" 	0
scalar scenarioPRJP1.node[0].wlan[0].mac 	"numDropped AC 0" 	86
scalar scenarioPRJP1.node[0].wlan[0].mac 	"numDropped AC 1" 	0
scalar scenarioPRJP1.node[0].wlan[0].mac 	"numDropped AC 2" 	0
scalar scenarioPRJP1.node[0].wlan[0].mac 	"numDropped AC 3" 	0
scalar scenarioPRJP1.node[0].wlan[0].mac 	rcvdPkFromLL:count 	7380
attr interpolationmode  none
attr source  packetReceivedFromLower
attr title  "packets received from lower layer, count"
scalar scenarioPRJP1.node[0].wlan[0].mac 	rcvdPkFromLL:sum(packetBytes) 	2413054
attr interpolationmode  none
attr source  packetReceivedFromLower
attr title  "packets received from lower layer, sum(packetBytes)"
scalar scenarioPRJP1.node[0].wlan[0].mac 	sentDownPk:count 	8805
attr interpolationmode  none
attr source  packetSentToLower
attr title  "packets sent to lower layer, count"
scalar scenarioPRJP1.node[0].wlan[0].mac 	sentDownPk:sum(packetBytes) 	2793780
attr interpolationmode  none
attr source  packetSentToLower
attr title  "packets sent to lower layer, sum(packetBytes)"
scalar scenarioPRJP1.node[0].wlan[0].mac 	rcvdPkFromHL:count 	3106
attr interpolationmode  none
attr source  packetReceivedFromUpper
attr title  "packets received from higher layer, count"
scalar scenarioPRJP1.node[0].wlan[0].mac 	rcvdPkFromHL:sum(packetBytes) 	649600
attr interpolationmode  none
attr source  packetReceivedFromUpper
attr title  "packets received from higher layer, sum(packetBytes)"
scalar scenarioPRJP1.node[0].wlan[0].mac 	passedUpPk:count 	2342
attr interpolationmode  none
attr source  packetSentToUpper
attr title  "packets passed to higher layer, count"
scalar scenarioPRJP1.node[0].wlan[0].mac 	passedUpPk:sum(packetBytes) 	544468
attr interpolationmode  none
attr source  packetSentToUpper
attr title  "packets passed to higher layer, sum(packetBytes)"
statistic scenarioPRJP1.node[0].wlan[0].radio 	radioChannel:histogram
field count 1
field mean 3
field stddev -nan
field sum 3
field sqrsum 9
field min 3
field max 3
attr interpolationmode  sample-hold
attr source  radioChannelChanged
attr title  "Radio channel, histogram"
bin	-INF	0
bin	2	0
bin	3	1
bin	4	0
scalar scenarioPRJP1.node[0].wlan[0].radio 	transmissionState:count 	35220
attr interpolationmode  sample-hold
attr source  transmissionStateChanged
attr title  "Radio transmission state, count"
scalar scenarioPRJP1.node[0].wlan[0].radio 	receptionState:count 	32407
attr interpolationmode  sample-hold
attr source  receptionStateChanged
attr title  "Radio reception state, count"
scalar scenarioPRJP1.node[0].wlan[0].radio 	radioMode:count 	17612
attr interpolationmode  sample-hold
attr source  radioModeChanged
attr title  "Radio mode, count"
statistic scenarioPRJP1.node[0].wlan[0].radio 	symbolErrorRate:histogram
field count 0
field mean -nan
field stddev -nan
field sum 0
field sqrsum 0
field min -nan
field max -nan
attr source  symbolErrorRate
attr title  "Symbol error rate, histogram"
bin	-INF	0
bin	-0.5	0
bin	-0.46666666666667	0
bin	-0.43333333333333	0
bin	-0.4	0
bin	-0.36666666666667	0
bin	-0.33333333333333	0
bin	-0.3	0
bin	-0.26666666666667	0
bin	-0.23333333333333	0
bin	-0.2	0
bin	-0.16666666666667	0
bin	-0.13333333333333	0
bin	-0.1	0
bin	-0.066666666666667	0
bin	-0.033333333333333	0
bin	0	0
bin	0.033333333333333	0
bin	0.066666666666667	0
bin	0.1	0
bin	0.13333333333333	0
bin	0.16666666666667	0
bin	0.2	0
bin	0.23333333333333	0
bin	0.26666666666667	0
bin	0.3	0
bin	0.33333333333333	0
bin	0.36666666666667	0
bin	0.4	0
bin	0.43333333333333	0
bin	0.46666666666667	0
bin	0.5	0
statistic scenarioPRJP1.node[0].wlan[0].radio 	bitErrorRate:histogram
field count 0
field mean -nan
field stddev -nan
field sum 0
field sqrsum 0
field min -nan
field max -nan
attr source  bitErrorRate
attr title  "Bit error rate, histogram"
bin	-INF	0
bin	-0.5	0
bin	-0.46666666666667	0
bin	-0.43333333333333	0
bin	-0.4	0
bin	-0.36666666666667	0
bin	-0.33333333333333	0
bin	-0.3	0
bin	-0.26666666666667	0
bin	-0.23333333333333	0
bin	-0.2	0
bin	-0.16666666666667	0
bin	-0.13333333333333	0
bin	-0.1	0
bin	-0.066666666666667	0
bin	-0.033333333333333	0
bin	0	0
bin	0.033333333333333	0
bin	0.066666666666667	0
bin	0.1	0
bin	0.13333333333333	0
bin	0.16666666666667	0
bin	0.2	0
bin	0.23333333333333	0
bin	0.26666666666667	0
bin	0.3	0
bin	0.33333333333333	0
bin	0.36666666666667	0
bin	0.4	0
bin	0.43333333333333	0
bin	0.46666666666667	0
bin	0.5	0
statistic scenarioPRJP1.node[0].wlan[0].radio 	packetErrorRate:histogram
field count 7380
field mean 0.020694570250201
field stddev 0.13905625517793
field sum 152.72592844648
field sqrsum 145.8456795415
field min 0
field max 1
attr source  packetErrorRate
attr title  "Packet error rate, histogram"
bin	-INF	0
bin	-0.5	0
bin	-0.43333333333333	0
bin	-0.36666666666667	0
bin	-0.3	0
bin	-0.23333333333333	0
bin	-0.16666666666667	0
bin	-0.1	0
bin	-0.033333333333333	7200
bin	0.033333333333333	8
bin	0.1	10
bin	0.16666666666667	2
bin	0.23333333333333	2
bin	0.3	2
bin	0.36666666666667	4
bin	0.43333333333333	2
bin	0.5	1
bin	0.56666666666667	2
bin	0.63333333333333	4
bin	0.7	0
bin	0.76666666666667	2
bin	0.83333333333333	3
bin	0.9	2
bin	0.96666666666667	136
bin	1.0333333333333	0
bin	1.1	0
bin	1.1666666666667	0
bin	1.2333333333333	0
bin	1.3	0
bin	1.3666666666667	0
bin	1.4333333333333	0
bin	1.5	0
statistic scenarioPRJP1.node[0].wlan[0].radio 	minSNIR:histogram
field count 7380
field mean 1401.5557112418
field stddev 5342.6971985431
field sum 10343481.148964
field sqrsum 225126191227.36
field min 0.014143334862413
field max 113961.85073939
attr source  minSNIR
attr title  "Min SNIR, histogram"
bin	-INF	0
bin	-401.25029876523	0
bin	-347.52691220251	0
bin	-293.80352563979	0
bin	-240.08013907707	0
bin	-186.35675251436	0
bin	-132.63336595164	0
bin	-78.909979388921	0
bin	-25.186592826204	631
bin	28.536793736513	164
bin	82.260180299231	570
bin	135.98356686195	1814
bin	189.70695342467	987
bin	243.43033998738	578
bin	297.1537265501	454
bin	350.87711311282	270
bin	404.60049967553	198
bin	458.32388623825	156
bin	512.04727280097	119
bin	565.77065936369	104
bin	619.4940459264	85
bin	673.21743248912	87
bin	726.94081905184	50
bin	780.66420561456	49
bin	834.38759217727	33
bin	888.11097873999	33
bin	941.83436530271	32
bin	995.55775186543	31
bin	1049.2811384281	17
bin	1103.0045249909	25
bin	1156.7279115536	20
bin	1210.4512981163	873
scalar scenarioPRJP1.node[0].lo0.lo 	droppedPkBitError:count 	0
attr interpolationmode  none
attr source  dropPkBitError
attr title  "packets dropped/bit error, count"
scalar scenarioPRJP1.node[0].lo0.lo 	droppedPkBitError:sum(packetBytes) 	0
attr interpolationmode  none
attr source  dropPkBitError
attr title  "packets dropped/bit error, sum(packetBytes)"
scalar scenarioPRJP1.node[0].lo0.lo 	rcvdPkFromHL:count 	0
attr interpolationmode  none
attr source  packetReceivedFromUpper
attr title  "packets received from higher layer, count"
scalar scenarioPRJP1.node[0].lo0.lo 	rcvdPkFromHL:sum(packetBytes) 	0
attr interpolationmode  none
attr source  packetReceivedFromUpper
attr title  "packets received from higher layer, sum(packetBytes)"
scalar scenarioPRJP1.node[0].lo0.lo 	passedUpPk:count 	0
attr interpolationmode  none
attr source  packetSentToUpper
attr title  "packets passed to higher layer, count"
scalar scenarioPRJP1.node[0].lo0.lo 	passedUpPk:sum(packetBytes) 	0
attr interpolationmode  none
attr source  packetSentToUpper
attr title  "packets passed to higher layer, sum(packetBytes)"
scalar scenarioPRJP1.node[5].app 	"Total sent" 	2608
scalar scenarioPRJP1.node[5].app 	"Total received" 	181
scalar scenarioPRJP1.node[5].app 	"Total deleted" 	23
scalar scenarioPRJP1.node[5].app 	dropPk:count 	23
attr interpolationmode  none
attr source  dropPk
attr title  "packets dropped, count"
scalar scenarioPRJP1.node[5].app 	dropPk:sum(packetBytes) 	11776
attr interpolationmode  none
attr source  dropPk
attr title  "packets dropped, sum(packetBytes)"
scalar scenarioPRJP1.node[5].app 	outOfOrderPk:count 	244
attr interpolationmode  none
attr source  outOfOrderPk
attr title  "packets received out of order, count"
scalar scenarioPRJP1.node[5].app 	outOfOrderPk:sum(packetBytes) 	124928
attr interpolationmode  none
attr source  outOfOrderPk
attr title  "packets received out of order, sum(packetBytes)"
scalar scenarioPRJP1.node[5].app 	rcvdPk:count 	181
attr interpolationmode  none
attr source  rcvdPk
attr title  "packets received, count"
scalar scenarioPRJP1.node[5].app 	rcvdPk:sum(packetBytes) 	92672
attr interpolationmode  none
attr source  rcvdPk
attr title  "packets received, sum(packetBytes)"
statistic scenarioPRJP1.node[5].app 	endToEndDelay:histogram
field count 181
field mean 1.970554626651
field stddev 4.5055140555682
field sum 356.67038742383
field sqrsum 4356.7767250135
field min 0.000945048668
field max 19.81364286786
attr interpolationmode  none
attr source  messageAge(rcvdPk)
attr title  "delay, histogram"
attr unit  s
bin	-INF	0
bin	-9.905403860928	0
bin	-8.5845573396485	0
bin	-7.2637108183691	0
bin	-5.9428642970896	0
bin	-4.6220177758101	0
bin	-3.3011712545307	0
bin	-1.9803247332512	0
bin	-0.65947821197173	134
bin	0.66136830930773	12
bin	1.9822148305872	6
bin	3.3030613518667	3
bin	4.6239078731461	3
bin	5.9447543944256	2
bin	7.2656009157051	4
bin	8.5864474369845	1
bin	9.907293958264	3
bin	11.228140479543	1
bin	12.548987000823	3
bin	13.869833522102	1
bin	15.190680043382	3
bin	16.511526564661	2
bin	17.832373085941	1
bin	19.15321960722	2
bin	20.4740661285	0
bin	21.794912649779	0
bin	23.115759171059	0
bin	24.436605692338	0
bin	25.757452213618	0
bin	27.078298734897	0
bin	28.399145256177	0
bin	29.719991777456	0
scalar scenarioPRJP1.node[5].app 	sentPk:count 	2608
attr interpolationmode  none
attr source  sentPk
attr title  "packets sent, count"
scalar scenarioPRJP1.node[5].app 	sentPk:sum(packetBytes) 	1335296
attr interpolationmode  none
attr source  sentPk
attr title  "packets sent, sum(packetBytes)"
scalar scenarioPRJP1.node[5].udp 	droppedPkBadChecksum:count 	0
attr interpolationmode  none
attr title  "packets dropped (checksum error), count"
scalar scenarioPRJP1.node[5].udp 	droppedPkWrongPort:count 	0
attr interpolationmode  none
attr title  "packets dropped (wrong port), count"
scalar scenarioPRJP1.node[5].udp 	passedUpPk:count 	448
attr interpolationmode  none
attr title  "packets passed up, count"
scalar scenarioPRJP1.node[5].udp 	rcvdPk:count 	448
attr interpolationmode  none
attr source  rcvdPk
attr title  "packets received, count"
scalar scenarioPRJP1.node[5].udp 	rcvdPk:sum(packetBytes) 	232960
attr interpolationmode  none
attr source  rcvdPk
attr title  "packets received, sum(packetBytes)"
scalar scenarioPRJP1.node[5].udp 	sentPk:count 	2608
attr interpolationmode  none
attr source  sentPk
attr title  "packets sent, count"
scalar scenarioPRJP1.node[5].udp 	sentPk:sum(packetBytes) 	1356160
attr interpolationmode  none
attr source  sentPk
attr title  "packets sent, sum(packetBytes)"
scalar scenarioPRJP1.node[5].networkLayer.arp 	failedARPResolution:count 	37
attr title  "ARP failed resolutions, count"
scalar scenarioPRJP1.node[5].networkLayer.arp 	completedARPResolution:count 	165
attr title  "ARP completed resolutions, count"
scalar scenarioPRJP1.node[5].networkLayer.arp 	initiatedARPResolution:count 	48
attr title  "ARP initiated resolutions, count"
scalar scenarioPRJP1.node[5].networkLayer.arp 	sentReply:count 	21
attr title  "ARP replies sent, count"
scalar scenarioPRJP1.node[5].networkLayer.arp 	sentReq:count 	129
attr title  "ARP request sent, count"
scalar scenarioPRJP1.node[5].mobility 	startTime 	2.5
scalar scenarioPRJP1.node[5].mobility 	totalTime 	947.5
scalar scenarioPRJP1.node[5].mobility 	stopTime 	950
scalar scenarioPRJP1.node[5].mobility 	minSpeed 	2.4755639147566e-13
scalar scenarioPRJP1.node[5].mobility 	maxSpeed 	20.697499399607
scalar scenarioPRJP1.node[5].mobility 	totalDistance 	10022.008007982
scalar scenarioPRJP1.node[5].mobility 	totalCO2Emission 	2772.1983472347
scalar scenarioPRJP1.node[5].wlan[0].mgmt 	dataQueueLen:max 	87
attr interpolationmode  sample-hold
attr title  "data queue length, max"
scalar scenarioPRJP1.node[5].wlan[0].mgmt 	dataQueueLen:timeavg 	0.04285580290676
attr interpolationmode  sample-hold
attr title  "data queue length, timeavg"
scalar scenarioPRJP1.node[5].wlan[0].mgmt 	dropPkByQueue:count 	0
attr interpolationmode  none
attr source  dropPkByQueue
attr title  "packets dropped by queue, count"
scalar scenarioPRJP1.node[5].wlan[0].mgmt 	dropPkByQueue:sum(packetBytes) 	0
attr interpolationmode  none
attr source  dropPkByQueue
attr title  "packets dropped by queue, sum(packetBytes)"
scalar scenarioPRJP1.node[5].wlan[0].mac 	"number of received packets" 	1960
scalar scenarioPRJP1.node[5].wlan[0].mac 	"number of collisions" 	323
scalar scenarioPRJP1.node[5].wlan[0].mac 	"number of internal collisions" 	6
scalar scenarioPRJP1.node[5].wlan[0].mac 	"number of retry for AC 0" 	5127
scalar scenarioPRJP1.node[5].wlan[0].mac 	"number of retry for AC 1" 	1
scalar scenarioPRJP1.node[5].wlan[0].mac 	"number of retry for AC 2" 	0
scalar scenarioPRJP1.node[5].wlan[0].mac 	"number of retry for AC 3" 	0
scalar scenarioPRJP1.node[5].wlan[0].mac 	"sent and received bits" 	6261376
scalar scenarioPRJP1.node[5].wlan[0].mac 	"sent packet within AC 0" 	994
scalar scenarioPRJP1.node[5].wlan[0].mac 	"sent packet within AC 1" 	43
scalar scenarioPRJP1.node[5].wlan[0].mac 	"sent packet within AC 2" 	0
scalar scenarioPRJP1.node[5].wlan[0].mac 	"sent packet within AC 3" 	0
scalar scenarioPRJP1.node[5].wlan[0].mac 	"sent in TXOP " 	0
scalar scenarioPRJP1.node[5].wlan[0].mac 	"sentWithoutRetry AC 0" 	892
scalar scenarioPRJP1.node[5].wlan[0].mac 	"sentWithoutRetry AC 1" 	42
scalar scenarioPRJP1.node[5].wlan[0].mac 	"sentWithoutRetry AC 2" 	0
scalar scenarioPRJP1.node[5].wlan[0].mac 	"sentWithoutRetry AC 3" 	0
scalar scenarioPRJP1.node[5].wlan[0].mac 	"numGivenUp AC 0" 	835
scalar scenarioPRJP1.node[5].wlan[0].mac 	"numGivenUp AC 1" 	0
scalar scenarioPRJP1.node[5].wlan[0].mac 	"numGivenUp AC 2" 	0
scalar scenarioPRJP1.node[5].wlan[0].mac 	"numGivenUp AC 3" 	0
scalar scenarioPRJP1.node[5].wlan[0].mac 	"numDropped AC 0" 	147
scalar scenarioPRJP1.node[5].wlan[0].mac 	"numDropped AC 1" 	0
scalar scenarioPRJP1.node[5].wlan[0].mac 	"numDropped AC 2" 	0
scalar scenarioPRJP1.node[5].wlan[0].mac 	"numDropped AC 3" 	0
scalar scenarioPRJP1.node[5].wlan[0].mac 	rcvdPkFromLL:count 	13811
attr interpolationmode  none
attr source  packetReceivedFromLower
attr title  "packets received from lower layer, count"
scalar scenarioPRJP1.node[5].wlan[0].mac 	rcvdPkFromLL:sum(packetBytes) 	4109508
attr interpolationmode  none
attr source  packetReceivedFromLower
attr title  "packets received from lower layer, sum(packetBytes)"
scalar scenarioPRJP1.node[5].wlan[0].mac 	sentDownPk:count 	11445
attr interpolationmode  none
attr source  packetSentToLower
attr title  "packets sent to lower layer, count"
scalar scenarioPRJP1.node[5].wlan[0].mac 	sentDownPk:sum(packetBytes) 	4027836
attr interpolationmode  none
attr source  packetSentToLower
attr title  "packets sent to lower layer, sum(packetBytes)"
scalar scenarioPRJP1.node[5].wlan[0].mac 	rcvdPkFromHL:count 	4510
attr interpolationmode  none
attr source  packetReceivedFromUpper
attr title  "packets received from higher layer, count"
scalar scenarioPRJP1.node[5].wlan[0].mac 	rcvdPkFromHL:sum(packetBytes) 	1300836
attr interpolationmode  none
attr source  packetReceivedFromUpper
attr title  "packets received from higher layer, sum(packetBytes)"
scalar scenarioPRJP1.node[5].wlan[0].mac 	passedUpPk:count 	3840
attr interpolationmode  none
attr source  packetSentToUpper
attr title  "packets passed to higher layer, count"
scalar scenarioPRJP1.node[5].wlan[0].mac 	passedUpPk:sum(packetBytes) 	1003504
attr interpolationmode  none
attr source  packetSentToUpper
attr title  "packets passed to higher layer, sum(packetBytes)"
statistic scenarioPRJP1.node[5].wlan[0].radio 	radioChannel:histogram
field count 1
field mean 3
field stddev -nan
field sum 3
field sqrsum 9
field min 3
field max 3
attr interpolationmode  sample-hold
attr source  radioChannelChanged
attr title  "Radio channel, histogram"
bin	-INF	0
bin	2	0
bin	3	1
bin	4	0
scalar scenarioPRJP1.node[5].wlan[0].radio 	transmissionState:count 	45780
attr interpolationmode  sample-hold
attr source  transmissionStateChanged
attr title  "Radio transmission state, count"
scalar scenarioPRJP1.node[5].wlan[0].radio 	receptionState:count 	50701
attr interpolationmode  sample-hold
attr source  receptionStateChanged
attr title  "Radio reception state, count"
scalar scenarioPRJP1.node[5].wlan[0].radio 	radioMode:count 	22892
attr interpolationmode  sample-hold
attr source  radioModeChanged
attr title  "Radio mode, count"
statistic scenarioPRJP1.node[5].wlan[0].radio 	symbolErrorRate:histogram
field count 0
field mean -nan
field stddev -nan
field sum 0
field sqrsum 0
field min -nan
field max -nan
attr source  symbolErrorRate
attr title  "Symbol error rate, histogram"
bin	-INF	0
bin	-0.5	0
bin	-0.46666666666667	0
bin	-0.43333333333333	0
bin	-0.4	0
bin	-0.36666666666667	0
bin	-0.33333333333333	0
bin	-0.3	0
bin	-0.26666666666667	0
bin	-0.23333333333333	0
bin	-0.2	0
bin	-0.16666666666667	0
bin	-0.13333333333333	0
bin	-0.1	0
bin	-0.066666666666667	0
bin	-0.033333333333333	0
bin	0	0
bin	0.033333333333333	0
bin	0.066666666666667	0
bin	0.1	0
bin	0.13333333333333	0
bin	0.16666666666667	0
bin	0.2	0
bin	0.23333333333333	0
bin	0.26666666666667	0
bin	0.3	0
bin	0.33333333333333	0
bin	0.36666666666667	0
bin	0.4	0
bin	0.43333333333333	0
bin	0.46666666666667	0
bin	0.5	0
statistic scenarioPRJP1.node[5].wlan[0].radio 	bitErrorRate:histogram
field count 0
field mean -nan
field stddev -nan
field sum 0
field sqrsum 0
field min -nan
field max -nan
attr source  bitErrorRate
attr title  "Bit error rate, histogram"
bin	-INF	0
bin	-0.5	0
bin	-0.46666666666667	0
bin	-0.43333333333333	0
bin	-0.4	0
bin	-0.36666666666667	0
bin	-0.33333333333333	0
bin	-0.3	0
bin	-0.26666666666667	0
bin	-0.23333333333333	0
bin	-0.2	0
bin	-0.16666666666667	0
bin	-0.13333333333333	0
bin	-0.1	0
bin	-0.066666666666667	0
bin	-0.033333333333333	0
bin	0	0
bin	0.033333333333333	0
bin	0.066666666666667	0
bin	0.1	0
bin	0.13333333333333	0
bin	0.16666666666667	0
bin	0.2	0
bin	0.23333333333333	0
bin	0.26666666666667	0
bin	0.3	0
bin	0.33333333333333	0
bin	0.36666666666667	0
bin	0.4	0
bin	0.43333333333333	0
bin	0.46666666666667	0
bin	0.5	0
statistic scenarioPRJP1.node[5].wlan[0].radio 	packetErrorRate:histogram
field count 13811
field mean 0.022242697234757
field stddev 0.143836230374
field sum 307.19389150923
field sqrsum 292.54599345407
field min 0
field max 1
attr source  packetErrorRate
attr title  "Packet error rate, histogram"
bin	-INF	0
bin	-0.5	0
bin	-0.43333333333333	0
bin	-0.36666666666667	0
bin	-0.3	0
bin	-0.23333333333333	0
bin	-0.16666666666667	0
bin	-0.1	0
bin	-0.033333333333333	13444
bin	0.033333333333333	23
bin	0.1	15
bin	0.16666666666667	5
bin	0.23333333333333	7
bin	0.3	5
bin	0.36666666666667	7
bin	0.43333333333333	5
bin	0.5	3
bin	0.56666666666667	2
bin	0.63333333333333	5
bin	0.7	4
bin	0.76666666666667	2
bin	0.83333333333333	7
bin	0.9	7
bin	0.96666666666667	270
bin	1.0333333333333	0
bin	1.1	0
bin	1.1666666666667	0
bin	1.2333333333333	0
bin	1.3	0
bin	1.3666666666667	0
bin	1.4333333333333	0
bin	1.5	0
statistic scenarioPRJP1.node[5].wlan[0].radio 	minSNIR:histogram
field count 13811
field mean 6304.6855900529
field stddev 18752.050242025
field sum 87074012.68422
field sqrsum 5405114225177.1
field min 0.0011158323451492
field max 408462.96697893
attr source  minSNIR
attr title  "Min SNIR, histogram"
bin	-INF	0
bin	-244.45681982458	0
bin	-211.80350532304	0
bin	-179.15019082149	0
bin	-146.49687631995	0
bin	-113.8435618184	0
bin	-81.190247316856	0
bin	-48.536932815311	0
bin	-15.883618313766	981
bin	16.769696187779	434
bin	49.423010689324	109
bin	82.076325190869	80
bin	114.72963969241	1427
bin	147.38295419396	1434
bin	180.0362686955	959
bin	212.68958319705	688
bin	245.34289769859	543
bin	277.99621220014	408
bin	310.64952670168	335
bin	343.30284120323	275
bin	375.95615570477	230
bin	408.60947020632	202
bin	441.26278470786	149
bin	473.91609920941	138
bin	506.56941371095	126
bin	539.2227282125	91
bin	571.87604271404	97
bin	604.52935721559	101
bin	637.18267171713	83
bin	669.83598621868	56
bin	702.48930072022	57
bin	735.14261522177	4808
scalar scenarioPRJP1.node[5].lo0.lo 	droppedPkBitError:count 	0
attr interpolationmode  none
attr source  dropPkBitError
attr title  "packets dropped/bit error, count"
scalar scenarioPRJP1.node[5].lo0.lo 	droppedPkBitError:sum(packetBytes) 	0
attr interpolationmode  none
attr source  dropPkBitError
attr title  "packets dropped/bit error, sum(packetBytes)"
scalar scenarioPRJP1.node[5].lo0.lo 	rcvdPkFromHL:count 	0
attr interpolationmode  none
attr source  packetReceivedFromUpper
attr title  "packets received from higher layer, count"
scalar scenarioPRJP1.node[5].lo0.lo 	rcvdPkFromHL:sum(packetBytes) 	0
attr interpolationmode  none
attr source  packetReceivedFromUpper
attr title  "packets received from higher layer, sum(packetBytes)"
scalar scenarioPRJP1.node[5].lo0.lo 	passedUpPk:count 	0
attr interpolationmode  none
attr source  packetSentToUpper
attr title  "packets passed to higher layer, count"
scalar scenarioPRJP1.node[5].lo0.lo 	passedUpPk:sum(packetBytes) 	0
attr interpolationmode  none
attr source  packetSentToUpper
attr title  "packets passed to higher layer, sum(packetBytes)"
scalar scenarioPRJP1.node[1].app 	"Total sent" 	2604
scalar scenarioPRJP1.node[1].app 	"Total received" 	237
scalar scenarioPRJP1.node[1].app 	"Total deleted" 	38
scalar scenarioPRJP1.node[1].app 	dropPk:count 	38
attr interpolationmode  none
attr source  dropPk
attr title  "packets dropped, count"
scalar scenarioPRJP1.node[1].app 	dropPk:sum(packetBytes) 	19456
attr interpolationmode  none
attr source  dropPk
attr title  "packets dropped, sum(packetBytes)"
scalar scenarioPRJP1.node[1].app 	outOfOrderPk:count 	300
attr interpolationmode  none
attr source  outOfOrderPk
attr title  "packets received out of order, count"
scalar scenarioPRJP1.node[1].app 	outOfOrderPk:sum(packetBytes) 	153600
attr interpolationmode  none
attr source  outOfOrderPk
attr title  "packets received out of order, sum(packetBytes)"
scalar scenarioPRJP1.node[1].app 	rcvdPk:count 	237
attr interpolationmode  none
attr source  rcvdPk
attr title  "packets received, count"
scalar scenarioPRJP1.node[1].app 	rcvdPk:sum(packetBytes) 	121344
attr interpolationmode  none
attr source  rcvdPk
attr title  "packets received, sum(packetBytes)"
statistic scenarioPRJP1.node[1].app 	endToEndDelay:histogram
field count 237
field mean 1.2474213804136
field stddev 3.4691424618476
field sum 295.63886715803
field sqrsum 3209.0343070343
field min 0.000945011007
field max 17.067720193594
attr interpolationmode  none
attr source  messageAge(rcvdPk)
attr title  "delay, histogram"
attr unit  s
bin	-INF	0
bin	-7.3593432984745	0
bin	-6.377971523877	0
bin	-5.3965997492794	0
bin	-4.4152279746819	0
bin	-3.4338562000844	0
bin	-2.4524844254868	0
bin	-1.4711126508893	0
bin	-0.48974087629177	190
bin	0.49163089830577	12
bin	1.4730026729033	5
bin	2.4543744475008	2
bin	3.4357462220984	3
bin	4.4171179966959	5
bin	5.3984897712934	1
bin	6.379861545891	4
bin	7.3612333204885	1
bin	8.342605095086	1
bin	9.3239768696836	1
bin	10.305348644281	2
bin	11.286720418879	0
bin	12.268092193476	2
bin	13.249463968074	1
bin	14.230835742671	2
bin	15.212207517269	2
bin	16.193579291866	3
bin	17.174951066464	0
bin	18.156322841061	0
bin	19.137694615659	0
bin	20.119066390256	0
bin	21.100438164854	0
bin	22.081809939451	0
scalar scenarioPRJP1.node[1].app 	sentPk:count 	2604
attr interpolationmode  none
attr source  sentPk
attr title  "packets sent, count"
scalar scenarioPRJP1.node[1].app 	sentPk:sum(packetBytes) 	1333248
attr interpolationmode  none
attr source  sentPk
attr title  "packets sent, sum(packetBytes)"
scalar scenarioPRJP1.node[1].udp 	droppedPkBadChecksum:count 	0
attr interpolationmode  none
attr title  "packets dropped (checksum error), count"
scalar scenarioPRJP1.node[1].udp 	droppedPkWrongPort:count 	0
attr interpolationmode  none
attr title  "packets dropped (wrong port), count"
scalar scenarioPRJP1.node[1].udp 	passedUpPk:count 	575
attr interpolationmode  none
attr title  "packets passed up, count"
scalar scenarioPRJP1.node[1].udp 	rcvdPk:count 	575
attr interpolationmode  none
attr source  rcvdPk
attr title  "packets received, count"
scalar scenarioPRJP1.node[1].udp 	rcvdPk:sum(packetBytes) 	299000
attr interpolationmode  none
attr source  rcvdPk
attr title  "packets received, sum(packetBytes)"
scalar scenarioPRJP1.node[1].udp 	sentPk:count 	2604
attr interpolationmode  none
attr source  sentPk
attr title  "packets sent, count"
scalar scenarioPRJP1.node[1].udp 	sentPk:sum(packetBytes) 	1354080
attr interpolationmode  none
attr source  sentPk
attr title  "packets sent, sum(packetBytes)"
scalar scenarioPRJP1.node[1].networkLayer.arp 	failedARPResolution:count 	61
attr title  "ARP failed resolutions, count"
scalar scenarioPRJP1.node[1].networkLayer.arp 	completedARPResolution:count 	272
attr title  "ARP completed resolutions, count"
scalar scenarioPRJP1.node[1].networkLayer.arp 	initiatedARPResolution:count 	79
attr title  "ARP initiated resolutions, count"
scalar scenarioPRJP1.node[1].networkLayer.arp 	sentReply:count 	11
attr title  "ARP replies sent, count"
scalar scenarioPRJP1.node[1].networkLayer.arp 	sentReq:count 	210
attr title  "ARP request sent, count"
scalar scenarioPRJP1.node[1].mobility 	startTime 	0.1
scalar scenarioPRJP1.node[1].mobility 	totalTime 	949.9
scalar scenarioPRJP1.node[1].mobility 	stopTime 	950
scalar scenarioPRJP1.node[1].mobility 	minSpeed 	2.475565935905e-13
scalar scenarioPRJP1.node[1].mobility 	maxSpeed 	21.67195460494
scalar scenarioPRJP1.node[1].mobility 	totalDistance 	10297.502823242
scalar scenarioPRJP1.node[1].mobility 	totalCO2Emission 	2989.2419964864
scalar scenarioPRJP1.node[1].wlan[0].mgmt 	dataQueueLen:max 	90
attr interpolationmode  sample-hold
attr title  "data queue length, max"
scalar scenarioPRJP1.node[1].wlan[0].mgmt 	dataQueueLen:timeavg 	0.040106980405637
attr interpolationmode  sample-hold
attr title  "data queue length, timeavg"
scalar scenarioPRJP1.node[1].wlan[0].mgmt 	dropPkByQueue:count 	0
attr interpolationmode  none
attr source  dropPkByQueue
attr title  "packets dropped by queue, count"
scalar scenarioPRJP1.node[1].wlan[0].mgmt 	dropPkByQueue:sum(packetBytes) 	0
attr interpolationmode  none
attr source  dropPkByQueue
attr title  "packets dropped by queue, sum(packetBytes)"
scalar scenarioPRJP1.node[1].wlan[0].mac 	"number of received packets" 	2406
scalar scenarioPRJP1.node[1].wlan[0].mac 	"number of collisions" 	596
scalar scenarioPRJP1.node[1].wlan[0].mac 	"number of internal collisions" 	0
scalar scenarioPRJP1.node[1].wlan[0].mac 	"number of retry for AC 0" 	4063
scalar scenarioPRJP1.node[1].wlan[0].mac 	"number of retry for AC 1" 	0
scalar scenarioPRJP1.node[1].wlan[0].mac 	"number of retry for AC 2" 	0
scalar scenarioPRJP1.node[1].wlan[0].mac 	"number of retry for AC 3" 	0
scalar scenarioPRJP1.node[1].wlan[0].mac 	"sent and received bits" 	3918176
scalar scenarioPRJP1.node[1].wlan[0].mac 	"sent packet within AC 0" 	498
scalar scenarioPRJP1.node[1].wlan[0].mac 	"sent packet within AC 1" 	0
scalar scenarioPRJP1.node[1].wlan[0].mac 	"sent packet within AC 2" 	0
scalar scenarioPRJP1.node[1].wlan[0].mac 	"sent packet within AC 3" 	0
scalar scenarioPRJP1.node[1].wlan[0].mac 	"sent in TXOP " 	0
scalar scenarioPRJP1.node[1].wlan[0].mac 	"sentWithoutRetry AC 0" 	461
scalar scenarioPRJP1.node[1].wlan[0].mac 	"sentWithoutRetry AC 1" 	0
scalar scenarioPRJP1.node[1].wlan[0].mac 	"sentWithoutRetry AC 2" 	0
scalar scenarioPRJP1.node[1].wlan[0].mac 	"sentWithoutRetry AC 3" 	0
scalar scenarioPRJP1.node[1].wlan[0].mac 	"numGivenUp AC 0" 	670
scalar scenarioPRJP1.node[1].wlan[0].mac 	"numGivenUp AC 1" 	0
scalar scenarioPRJP1.node[1].wlan[0].mac 	"numGivenUp AC 2" 	0
scalar scenarioPRJP1.node[1].wlan[0].mac 	"numGivenUp AC 3" 	0
scalar scenarioPRJP1.node[1].wlan[0].mac 	"numDropped AC 0" 	113
scalar scenarioPRJP1.node[1].wlan[0].mac 	"numDropped AC 1" 	0
scalar scenarioPRJP1.node[1].wlan[0].mac 	"numDropped AC 2" 	0
scalar scenarioPRJP1.node[1].wlan[0].mac 	"numDropped AC 3" 	0
scalar scenarioPRJP1.node[1].wlan[0].mac 	rcvdPkFromLL:count 	19726
attr interpolationmode  none
attr source  packetReceivedFromLower
attr title  "packets received from lower layer, count"
scalar scenarioPRJP1.node[1].wlan[0].mac 	rcvdPkFromLL:sum(packetBytes) 	6385888
attr interpolationmode  none
attr source  packetReceivedFromLower
attr title  "packets received from lower layer, sum(packetBytes)"
scalar scenarioPRJP1.node[1].wlan[0].mac 	sentDownPk:count 	10213
attr interpolationmode  none
attr source  packetSentToLower
attr title  "packets sent to lower layer, count"
scalar scenarioPRJP1.node[1].wlan[0].mac 	sentDownPk:sum(packetBytes) 	3043080
attr interpolationmode  none
attr source  packetSentToLower
attr title  "packets sent to lower layer, sum(packetBytes)"
scalar scenarioPRJP1.node[1].wlan[0].mac 	rcvdPkFromHL:count 	3857
attr interpolationmode  none
attr source  packetReceivedFromUpper
attr title  "packets received from higher layer, count"
scalar scenarioPRJP1.node[1].wlan[0].mac 	rcvdPkFromHL:sum(packetBytes) 	894276
attr interpolationmode  none
attr source  packetReceivedFromUpper
attr title  "packets received from higher layer, sum(packetBytes)"
scalar scenarioPRJP1.node[1].wlan[0].mac 	passedUpPk:count 	4484
attr interpolationmode  none
attr source  packetSentToUpper
attr title  "packets passed to higher layer, count"
scalar scenarioPRJP1.node[1].wlan[0].mac 	passedUpPk:sum(packetBytes) 	902580
attr interpolationmode  none
attr source  packetSentToUpper
attr title  "packets passed to higher layer, sum(packetBytes)"
statistic scenarioPRJP1.node[1].wlan[0].radio 	radioChannel:histogram
field count 1
field mean 3
field stddev -nan
field sum 3
field sqrsum 9
field min 3
field max 3
attr interpolationmode  sample-hold
attr source  radioChannelChanged
attr title  "Radio channel, histogram"
bin	-INF	0
bin	2	0
bin	3	1
bin	4	0
scalar scenarioPRJP1.node[1].wlan[0].radio 	transmissionState:count 	40852
attr interpolationmode  sample-hold
attr source  transmissionStateChanged
attr title  "Radio transmission state, count"
scalar scenarioPRJP1.node[1].wlan[0].radio 	receptionState:count 	60137
attr interpolationmode  sample-hold
attr source  receptionStateChanged
attr title  "Radio reception state, count"
scalar scenarioPRJP1.node[1].wlan[0].radio 	radioMode:count 	20428
attr interpolationmode  sample-hold
attr source  radioModeChanged
attr title  "Radio mode, count"
statistic scenarioPRJP1.node[1].wlan[0].radio 	symbolErrorRate:histogram
field count 0
field mean -nan
field stddev -nan
field sum 0
field sqrsum 0
field min -nan
field max -nan
attr source  symbolErrorRate
attr title  "Symbol error rate, histogram"
bin	-INF	0
bin	-0.5	0
bin	-0.46666666666667	0
bin	-0.43333333333333	0
bin	-0.4	0
bin	-0.36666666666667	0
bin	-0.33333333333333	0
bin	-0.3	0
bin	-0.26666666666667	0
bin	-0.23333333333333	0
bin	-0.2	0
bin	-0.16666666666667	0
bin	-0.13333333333333	0
bin	-0.1	0
bin	-0.066666666666667	0
bin	-0.033333333333333	0
bin	0	0
bin	0.033333333333333	0
bin	0.066666666666667	0
bin	0.1	0
bin	0.13333333333333	0
bin	0.16666666666667	0
bin	0.2	0
bin	0.23333333333333	0
bin	0.26666666666667	0
bin	0.3	0
bin	0.33333333333333	0
bin	0.36666666666667	0
bin	0.4	0
bin	0.43333333333333	0
bin	0.46666666666667	0
bin	0.5	0
statistic scenarioPRJP1.node[1].wlan[0].radio 	bitErrorRate:histogram
field count 0
field mean -nan
field stddev -nan
field sum 0
field sqrsum 0
field min -nan
field max -nan
attr source  bitErrorRate
attr title  "Bit error rate, histogram"
bin	-INF	0
bin	-0.5	0
bin	-0.46666666666667	0
bin	-0.43333333333333	0
bin	-0.4	0
bin	-0.36666666666667	0
bin	-0.33333333333333	0
bin	-0.3	0
bin	-0.26666666666667	0
bin	-0.23333333333333	0
bin	-0.2	0
bin	-0.16666666666667	0
bin	-0.13333333333333	0
bin	-0.1	0
bin	-0.066666666666667	0
bin	-0.033333333333333	0
bin	0	0
bin	0.033333333333333	0
bin	0.066666666666667	0
bin	0.1	0
bin	0.13333333333333	0
bin	0.16666666666667	0
bin	0.2	0
bin	0.23333333333333	0
bin	0.26666666666667	0
bin	0.3	0
bin	0.33333333333333	0
bin	0.36666666666667	0
bin	0.4	0
bin	0.43333333333333	0
bin	0.46666666666667	0
bin	0.5	0
statistic scenarioPRJP1.node[1].wlan[0].radio 	packetErrorRate:histogram
field count 19726
field mean 0.028952506347893
field stddev 0.16515277248051
field sum 571.11714021854
field sqrsum 554.54329226662
field min 0
field max 1
attr source  packetErrorRate
attr title  "Packet error rate, histogram"
bin	-INF	0
bin	-0.49945274621874	0
bin	-0.43285904672291	0
bin	-0.36626534722708	0
bin	-0.29967164773124	0
bin	-0.23307794823541	0
bin	-0.16648424873958	0
bin	-0.099890549243748	0
bin	-0.033296849747916	19078
bin	0.033296849747916	43
bin	0.099890549243748	8
bin	0.16648424873958	7
bin	0.23307794823541	9
bin	0.29967164773124	6
bin	0.36626534722708	4
bin	0.43285904672291	9
bin	0.49945274621874	4
bin	0.56604644571457	3
bin	0.6326401452104	4
bin	0.69923384470624	1
bin	0.76582754420207	3
bin	0.8324212436979	6
bin	0.89901494319373	12
bin	0.96560864268956	529
bin	1.0322023421854	0
bin	1.0987960416812	0
bin	1.1653897411771	0
bin	1.2319834406729	0
bin	1.2985771401687	0
bin	1.3651708396646	0
bin	1.4317645391604	0
bin	1.4983582386562	0
statistic scenarioPRJP1.node[1].wlan[0].radio 	minSNIR:histogram
field count 19726
field mean 13649.568831524
field stddev 56475.211165535
field sum 269251394.77065
field sqrsum 66587056363789
field min 0.00031194585359856
field max 2318509.3514356
attr source  minSNIR
attr title  "Min SNIR, histogram"
bin	-INF	0
bin	-1906.3989491813	0
bin	-1652.001885761	0
bin	-1397.6048223406	0
bin	-1143.2077589203	0
bin	-888.8106954999	0
bin	-634.41363207955	0
bin	-380.01656865919	0
bin	-125.61950523884	2221
bin	128.77755818152	6716
bin	383.17462160188	1229
bin	637.57168502223	555
bin	891.96874844259	356
bin	1146.3658118629	277
bin	1400.7628752833	241
bin	1655.1599387037	189
bin	1909.557002124	163
bin	2163.9540655444	162
bin	2418.3511289647	149
bin	2672.7481923851	137
bin	2927.1452558054	150
bin	3181.5423192258	133
bin	3435.9393826461	134
bin	3690.3364460665	119
bin	3944.7335094869	129
bin	4199.1305729072	106
bin	4453.5276363276	122
bin	4707.9246997479	129
bin	4962.3217631683	127
bin	5216.7188265886	129
bin	5471.115890009	121
bin	5725.5129534293	5932
scalar scenarioPRJP1.node[1].lo0.lo 	droppedPkBitError:count 	0
attr interpolationmode  none
attr source  dropPkBitError
attr title  "packets dropped/bit error, count"
scalar scenarioPRJP1.node[1].lo0.lo 	droppedPkBitError:sum(packetBytes) 	0
attr interpolationmode  none
attr source  dropPkBitError
attr title  "packets dropped/bit error, sum(packetBytes)"
scalar scenarioPRJP1.node[1].lo0.lo 	rcvdPkFromHL:count 	0
attr interpolationmode  none
attr source  packetReceivedFromUpper
attr title  "packets received from higher layer, count"
scalar scenarioPRJP1.node[1].lo0.lo 	rcvdPkFromHL:sum(packetBytes) 	0
attr interpolationmode  none
attr source  packetReceivedFromUpper
attr title  "packets received from higher layer, sum(packetBytes)"
scalar scenarioPRJP1.node[1].lo0.lo 	passedUpPk:count 	0
attr interpolationmode  none
attr source  packetSentToUpper
attr title  "packets passed to higher layer, count"
scalar scenarioPRJP1.node[1].lo0.lo 	passedUpPk:sum(packetBytes) 	0
attr interpolationmode  none
attr source  packetSentToUpper
attr title  "packets passed to higher layer, sum(packetBytes)"
scalar scenarioPRJP1.node[6].app 	"Total sent" 	2610
scalar scenarioPRJP1.node[6].app 	"Total received" 	170
scalar scenarioPRJP1.node[6].app 	"Total deleted" 	32
scalar scenarioPRJP1.node[6].app 	dropPk:count 	32
attr interpolationmode  none
attr source  dropPk
attr title  "packets dropped, count"
scalar scenarioPRJP1.node[6].app 	dropPk:sum(packetBytes) 	16384
attr interpolationmode  none
attr source  dropPk
attr title  "packets dropped, sum(packetBytes)"
scalar scenarioPRJP1.node[6].app 	outOfOrderPk:count 	275
attr interpolationmode  none
attr source  outOfOrderPk
attr title  "packets received out of order, count"
scalar scenarioPRJP1.node[6].app 	outOfOrderPk:sum(packetBytes) 	140800
attr interpolationmode  none
attr source  outOfOrderPk
attr title  "packets received out of order, sum(packetBytes)"
scalar scenarioPRJP1.node[6].app 	rcvdPk:count 	170
attr interpolationmode  none
attr source  rcvdPk
attr title  "packets received, count"
scalar scenarioPRJP1.node[6].app 	rcvdPk:sum(packetBytes) 	87040
attr interpolationmode  none
attr source  rcvdPk
attr title  "packets received, sum(packetBytes)"
statistic scenarioPRJP1.node[6].app 	endToEndDelay:histogram
field count 170
field mean 0.9711442978271
field stddev 3.0804864116255
field sum 165.09453063061
field sqrsum 1764.0386259677
field min 0.000945083887
field max 19.846742093776
attr interpolationmode  none
attr source  messageAge(rcvdPk)
attr title  "delay, histogram"
attr unit  s
bin	-INF	0
bin	-9.9219534210575	0
bin	-8.5989002870649	0
bin	-7.2758471530723	0
bin	-5.9527940190797	0
bin	-4.6297408850871	0
bin	-3.3066877510945	0
bin	-1.9836346171019	0
bin	-0.6605814831093	143
bin	0.6624716508833	7
bin	1.9855247848759	4
bin	3.3085779188685	2
bin	4.6316310528611	3
bin	5.9546841868537	3
bin	7.2777373208463	2
bin	8.6007904548389	1
bin	9.9238435888315	1
bin	11.246896722824	0
bin	12.569949856817	0
bin	13.893002990809	1
bin	15.216056124802	0
bin	16.539109258795	2
bin	17.862162392787	0
bin	19.18521552678	1
bin	20.508268660772	0
bin	21.831321794765	0
bin	23.154374928758	0
bin	24.47742806275	0
bin	25.800481196743	0
bin	27.123534330735	0
bin	28.446587464728	0
bin	29.76964059872	0
scalar scenarioPRJP1.node[6].app 	sentPk:count 	2610
attr interpolationmode  none
attr source  sentPk
attr title  "packets sent, count"
scalar scenarioPRJP1.node[6].app 	sentPk:sum(packetBytes) 	1336320
attr interpolationmode  none
attr source  sentPk
attr title  "packets sent, sum(packetBytes)"
scalar scenarioPRJP1.node[6].udp 	droppedPkBadChecksum:count 	0
attr interpolationmode  none
attr title  "packets dropped (checksum error), count"
scalar scenarioPRJP1.node[6].udp 	droppedPkWrongPort:count 	0
attr interpolationmode  none
attr title  "packets dropped (wrong port), count"
scalar scenarioPRJP1.node[6].udp 	passedUpPk:count 	477
attr interpolationmode  none
attr title  "packets passed up, count"
scalar scenarioPRJP1.node[6].udp 	rcvdPk:count 	477
attr interpolationmode  none
attr source  rcvdPk
attr title  "packets received, count"
scalar scenarioPRJP1.node[6].udp 	rcvdPk:sum(packetBytes) 	248040
attr interpolationmode  none
attr source  rcvdPk
attr title  "packets received, sum(packetBytes)"
scalar scenarioPRJP1.node[6].udp 	sentPk:count 	2610
attr interpolationmode  none
attr source  sentPk
attr title  "packets sent, count"
scalar scenarioPRJP1.node[6].udp 	sentPk:sum(packetBytes) 	1357200
attr interpolationmode  none
attr source  sentPk
attr title  "packets sent, sum(packetBytes)"
scalar scenarioPRJP1.node[6].networkLayer.arp 	failedARPResolution:count 	57
attr title  "ARP failed resolutions, count"
scalar scenarioPRJP1.node[6].networkLayer.arp 	completedARPResolution:count 	195
attr title  "ARP completed resolutions, count"
scalar scenarioPRJP1.node[6].networkLayer.arp 	initiatedARPResolution:count 	67
attr title  "ARP initiated resolutions, count"
scalar scenarioPRJP1.node[6].networkLayer.arp 	sentReply:count 	21
attr title  "ARP replies sent, count"
scalar scenarioPRJP1.node[6].networkLayer.arp 	sentReq:count 	192
attr title  "ARP request sent, count"
scalar scenarioPRJP1.node[6].mobility 	startTime 	2.5
scalar scenarioPRJP1.node[6].mobility 	totalTime 	947.5
scalar scenarioPRJP1.node[6].mobility 	stopTime 	950
scalar scenarioPRJP1.node[6].mobility 	minSpeed 	2.4754323435133e-13
scalar scenarioPRJP1.node[6].mobility 	maxSpeed 	17.239084636967
scalar scenarioPRJP1.node[6].mobility 	totalDistance 	8930.9778893534
scalar scenarioPRJP1.node[6].mobility 	totalCO2Emission 	2423.1466187061
scalar scenarioPRJP1.node[6].wlan[0].mgmt 	dataQueueLen:max 	80
attr interpolationmode  sample-hold
attr title  "data queue length, max"
scalar scenarioPRJP1.node[6].wlan[0].mgmt 	dataQueueLen:timeavg 	0.015166751251665
attr interpolationmode  sample-hold
attr title  "data queue length, timeavg"
scalar scenarioPRJP1.node[6].wlan[0].mgmt 	dropPkByQueue:count 	0
attr interpolationmode  none
attr source  dropPkByQueue
attr title  "packets dropped by queue, count"
scalar scenarioPRJP1.node[6].wlan[0].mgmt 	dropPkByQueue:sum(packetBytes) 	0
attr interpolationmode  none
attr source  dropPkByQueue
attr title  "packets dropped by queue, sum(packetBytes)"
scalar scenarioPRJP1.node[6].wlan[0].mac 	"number of received packets" 	1561
scalar scenarioPRJP1.node[6].wlan[0].mac 	"number of collisions" 	263
scalar scenarioPRJP1.node[6].wlan[0].mac 	"number of internal collisions" 	0
scalar scenarioPRJP1.node[6].wlan[0].mac 	"number of retry for AC 0" 	3859
scalar scenarioPRJP1.node[6].wlan[0].mac 	"number of retry for AC 1" 	0
scalar scenarioPRJP1.node[6].wlan[0].mac 	"number of retry for AC 2" 	0
scalar scenarioPRJP1.node[6].wlan[0].mac 	"number of retry for AC 3" 	0
scalar scenarioPRJP1.node[6].wlan[0].mac 	"sent and received bits" 	4043264
scalar scenarioPRJP1.node[6].wlan[0].mac 	"sent packet within AC 0" 	537
scalar scenarioPRJP1.node[6].wlan[0].mac 	"sent packet within AC 1" 	0
scalar scenarioPRJP1.node[6].wlan[0].mac 	"sent packet within AC 2" 	0
scalar scenarioPRJP1.node[6].wlan[0].mac 	"sent packet within AC 3" 	0
scalar scenarioPRJP1.node[6].wlan[0].mac 	"sent in TXOP " 	0
scalar scenarioPRJP1.node[6].wlan[0].mac 	"sentWithoutRetry AC 0" 	510
scalar scenarioPRJP1.node[6].wlan[0].mac 	"sentWithoutRetry AC 1" 	0
scalar scenarioPRJP1.node[6].wlan[0].mac 	"sentWithoutRetry AC 2" 	0
scalar scenarioPRJP1.node[6].wlan[0].mac 	"sentWithoutRetry AC 3" 	0
scalar scenarioPRJP1.node[6].wlan[0].mac 	"numGivenUp AC 0" 	638
scalar scenarioPRJP1.node[6].wlan[0].mac 	"numGivenUp AC 1" 	0
scalar scenarioPRJP1.node[6].wlan[0].mac 	"numGivenUp AC 2" 	0
scalar scenarioPRJP1.node[6].wlan[0].mac 	"numGivenUp AC 3" 	0
scalar scenarioPRJP1.node[6].wlan[0].mac 	"numDropped AC 0" 	88
scalar scenarioPRJP1.node[6].wlan[0].mac 	"numDropped AC 1" 	0
scalar scenarioPRJP1.node[6].wlan[0].mac 	"numDropped AC 2" 	0
scalar scenarioPRJP1.node[6].wlan[0].mac 	"numDropped AC 3" 	0
scalar scenarioPRJP1.node[6].wlan[0].mac 	rcvdPkFromLL:count 	9225
attr interpolationmode  none
attr source  packetReceivedFromLower
attr title  "packets received from lower layer, count"
scalar scenarioPRJP1.node[6].wlan[0].mac 	rcvdPkFromLL:sum(packetBytes) 	2959376
attr interpolationmode  none
attr source  packetReceivedFromLower
attr title  "packets received from lower layer, sum(packetBytes)"
scalar scenarioPRJP1.node[6].wlan[0].mac 	sentDownPk:count 	9010
attr interpolationmode  none
attr source  packetSentToLower
attr title  "packets sent to lower layer, count"
scalar scenarioPRJP1.node[6].wlan[0].mac 	sentDownPk:sum(packetBytes) 	2921870
attr interpolationmode  none
attr source  packetSentToLower
attr title  "packets sent to lower layer, sum(packetBytes)"
scalar scenarioPRJP1.node[6].wlan[0].mac 	rcvdPkFromHL:count 	3678
attr interpolationmode  none
attr source  packetReceivedFromUpper
attr title  "packets received from higher layer, count"
scalar scenarioPRJP1.node[6].wlan[0].mac 	rcvdPkFromHL:sum(packetBytes) 	882976
attr interpolationmode  none
attr source  packetReceivedFromUpper
attr title  "packets received from higher layer, sum(packetBytes)"
scalar scenarioPRJP1.node[6].wlan[0].mac 	passedUpPk:count 	3087
attr interpolationmode  none
attr source  packetSentToUpper
attr title  "packets passed to higher layer, count"
scalar scenarioPRJP1.node[6].wlan[0].mac 	passedUpPk:sum(packetBytes) 	666528
attr interpolationmode  none
attr source  packetSentToUpper
attr title  "packets passed to higher layer, sum(packetBytes)"
statistic scenarioPRJP1.node[6].wlan[0].radio 	radioChannel:histogram
field count 1
field mean 3
field stddev -nan
field sum 3
field sqrsum 9
field min 3
field max 3
attr interpolationmode  sample-hold
attr source  radioChannelChanged
attr title  "Radio channel, histogram"
bin	-INF	0
bin	2	0
bin	3	1
bin	4	0
scalar scenarioPRJP1.node[6].wlan[0].radio 	transmissionState:count 	36040
attr interpolationmode  sample-hold
attr source  transmissionStateChanged
attr title  "Radio transmission state, count"
scalar scenarioPRJP1.node[6].wlan[0].radio 	receptionState:count 	36540
attr interpolationmode  sample-hold
attr source  receptionStateChanged
attr title  "Radio reception state, count"
scalar scenarioPRJP1.node[6].wlan[0].radio 	radioMode:count 	18022
attr interpolationmode  sample-hold
attr source  radioModeChanged
attr title  "Radio mode, count"
statistic scenarioPRJP1.node[6].wlan[0].radio 	symbolErrorRate:histogram
field count 0
field mean -nan
field stddev -nan
field sum 0
field sqrsum 0
field min -nan
field max -nan
attr source  symbolErrorRate
attr title  "Symbol error rate, histogram"
bin	-INF	0
bin	-0.5	0
bin	-0.46666666666667	0
bin	-0.43333333333333	0
bin	-0.4	0
bin	-0.36666666666667	0
bin	-0.33333333333333	0
bin	-0.3	0
bin	-0.26666666666667	0
bin	-0.23333333333333	0
bin	-0.2	0
bin	-0.16666666666667	0
bin	-0.13333333333333	0
bin	-0.1	0
bin	-0.066666666666667	0
bin	-0.033333333333333	0
bin	0	0
bin	0.033333333333333	0
bin	0.066666666666667	0
bin	0.1	0
bin	0.13333333333333	0
bin	0.16666666666667	0
bin	0.2	0
bin	0.23333333333333	0
bin	0.26666666666667	0
bin	0.3	0
bin	0.33333333333333	0
bin	0.36666666666667	0
bin	0.4	0
bin	0.43333333333333	0
bin	0.46666666666667	0
bin	0.5	0
statistic scenarioPRJP1.node[6].wlan[0].radio 	bitErrorRate:histogram
field count 0
field mean -nan
field stddev -nan
field sum 0
field sqrsum 0
field min -nan
field max -nan
attr source  bitErrorRate
attr title  "Bit error rate, histogram"
bin	-INF	0
bin	-0.5	0
bin	-0.46666666666667	0
bin	-0.43333333333333	0
bin	-0.4	0
bin	-0.36666666666667	0
bin	-0.33333333333333	0
bin	-0.3	0
bin	-0.26666666666667	0
bin	-0.23333333333333	0
bin	-0.2	0
bin	-0.16666666666667	0
bin	-0.13333333333333	0
bin	-0.1	0
bin	-0.066666666666667	0
bin	-0.033333333333333	0
bin	0	0
bin	0.033333333333333	0
bin	0.066666666666667	0
bin	0.1	0
bin	0.13333333333333	0
bin	0.16666666666667	0
bin	0.2	0
bin	0.23333333333333	0
bin	0.26666666666667	0
bin	0.3	0
bin	0.33333333333333	0
bin	0.36666666666667	0
bin	0.4	0
bin	0.43333333333333	0
bin	0.46666666666667	0
bin	0.5	0
statistic scenarioPRJP1.node[6].wlan[0].radio 	packetErrorRate:histogram
field count 9225
field mean 0.027351794513266
field stddev 0.15869926756387
field sum 252.32030438488
field sqrsum 239.21207333051
field min 0
field max 1
attr source  packetErrorRate
attr title  "Packet error rate, histogram"
bin	-INF	0
bin	-0.5	0
bin	-0.43333333333333	0
bin	-0.36666666666667	0
bin	-0.3	0
bin	-0.23333333333333	0
bin	-0.16666666666667	0
bin	-0.1	0
bin	-0.033333333333333	8925
bin	0.033333333333333	16
bin	0.1	12
bin	0.16666666666667	8
bin	0.23333333333333	2
bin	0.3	2
bin	0.36666666666667	4
bin	0.43333333333333	4
bin	0.5	8
bin	0.56666666666667	2
bin	0.63333333333333	5
bin	0.7	4
bin	0.76666666666667	5
bin	0.83333333333333	4
bin	0.9	5
bin	0.96666666666667	219
bin	1.0333333333333	0
bin	1.1	0
bin	1.1666666666667	0
bin	1.2333333333333	0
bin	1.3	0
bin	1.3666666666667	0
bin	1.4333333333333	0
bin	1.5	0
statistic scenarioPRJP1.node[6].wlan[0].radio 	minSNIR:histogram
field count 9225
field mean 12210.433934047
field stddev 62181.447192938
field sum 112641253.04158
field sqrsum 37040293205587
field min 0.00019143741193263
field max 2407074.9750094
attr source  minSNIR
attr title  "Min SNIR, histogram"
bin	-INF	0
bin	-3266.4037217671	0
bin	-2830.5838504592	0
bin	-2394.7639791512	0
bin	-1958.9441078433	0
bin	-1523.1242365354	0
bin	-1087.3043652274	0
bin	-651.48449391949	0
bin	-215.66462261156	4408
bin	220.15524869637	2223
bin	655.97512000431	496
bin	1091.7949913122	263
bin	1527.6148626202	157
bin	1963.4347339281	118
bin	2399.254605236	96
bin	2835.074476544	71
bin	3270.8943478519	67
bin	3706.7142191598	67
bin	4142.5340904678	33
bin	4578.3539617757	57
bin	5014.1738330836	28
bin	5449.9937043916	31
bin	5885.8135756995	25
bin	6321.6334470074	28
bin	6757.4533183154	26
bin	7193.2731896233	27
bin	7629.0930609312	24
bin	8064.9129322392	26
bin	8500.7328035471	14
bin	8936.552674855	10
bin	9372.372546163	21
bin	9808.1924174709	909
scalar scenarioPRJP1.node[6].lo0.lo 	droppedPkBitError:count 	0
attr interpolationmode  none
attr source  dropPkBitError
attr title  "packets dropped/bit error, count"
scalar scenarioPRJP1.node[6].lo0.lo 	droppedPkBitError:sum(packetBytes) 	0
attr interpolationmode  none
attr source  dropPkBitError
attr title  "packets dropped/bit error, sum(packetBytes)"
scalar scenarioPRJP1.node[6].lo0.lo 	rcvdPkFromHL:count 	0
attr interpolationmode  none
attr source  packetReceivedFromUpper
attr title  "packets received from higher layer, count"
scalar scenarioPRJP1.node[6].lo0.lo 	rcvdPkFromHL:sum(packetBytes) 	0
attr interpolationmode  none
attr source  packetReceivedFromUpper
attr title  "packets received from higher layer, sum(packetBytes)"
scalar scenarioPRJP1.node[6].lo0.lo 	passedUpPk:count 	0
attr interpolationmode  none
attr source  packetSentToUpper
attr title  "packets passed to higher layer, count"
scalar scenarioPRJP1.node[6].lo0.lo 	passedUpPk:sum(packetBytes) 	0
attr interpolationmode  none
attr source  packetSentToUpper
attr title  "packets passed to higher layer, sum(packetBytes)"
scalar scenarioPRJP1.node[2].app 	"Total sent" 	2607
scalar scenarioPRJP1.node[2].app 	"Total received" 	143
scalar scenarioPRJP1.node[2].app 	"Total deleted" 	68
scalar scenarioPRJP1.node[2].app 	dropPk:count 	68
attr interpolationmode  none
attr source  dropPk
attr title  "packets dropped, count"
scalar scenarioPRJP1.node[2].app 	dropPk:sum(packetBytes) 	34816
attr interpolationmode  none
attr source  dropPk
attr title  "packets dropped, sum(packetBytes)"
scalar scenarioPRJP1.node[2].app 	outOfOrderPk:count 	168
attr interpolationmode  none
attr source  outOfOrderPk
attr title  "packets received out of order, count"
scalar scenarioPRJP1.node[2].app 	outOfOrderPk:sum(packetBytes) 	86016
attr interpolationmode  none
attr source  outOfOrderPk
attr title  "packets received out of order, sum(packetBytes)"
scalar scenarioPRJP1.node[2].app 	rcvdPk:count 	143
attr interpolationmode  none
attr source  rcvdPk
attr title  "packets received, count"
scalar scenarioPRJP1.node[2].app 	rcvdPk:sum(packetBytes) 	73216
attr interpolationmode  none
attr source  rcvdPk
attr title  "packets received, sum(packetBytes)"
statistic scenarioPRJP1.node[2].app 	endToEndDelay:histogram
field count 143
field mean 1.0788747195163
field stddev 3.0405991972593
field sum 154.27908489083
field sqrsum 1479.2723783679
field min 0.000945032047
field max 17.624543391396
attr interpolationmode  none
attr source  messageAge(rcvdPk)
attr title  "delay, histogram"
attr unit  s
bin	-INF	0
bin	-8.810853866838	0
bin	-7.6359473220276	0
bin	-6.4610407772172	0
bin	-5.2861342324068	0
bin	-4.1112276875964	0
bin	-2.936321142786	0
bin	-1.7614145979756	0
bin	-0.5865080531652	115
bin	0.5883984916452	8
bin	1.7633050364556	5
bin	2.938211581266	3
bin	4.1131181260764	1
bin	5.2880246708868	3
bin	6.4629312156972	0
bin	7.6378377605076	1
bin	8.812744305318	2
bin	9.9876508501284	2
bin	11.162557394939	0
bin	12.337463939749	0
bin	13.51237048456	0
bin	14.68727702937	1
bin	15.86218357418	1
bin	17.037090118991	1
bin	18.211996663801	0
bin	19.386903208612	0
bin	20.561809753422	0
bin	21.736716298232	0
bin	22.911622843043	0
bin	24.086529387853	0
bin	25.261435932664	0
bin	26.436342477474	0
scalar scenarioPRJP1.node[2].app 	sentPk:count 	2607
attr interpolationmode  none
attr source  sentPk
attr title  "packets sent, count"
scalar scenarioPRJP1.node[2].app 	sentPk:sum(packetBytes) 	1334784
attr interpolationmode  none
attr source  sentPk
attr title  "packets sent, sum(packetBytes)"
scalar scenarioPRJP1.node[2].udp 	droppedPkBadChecksum:count 	0
attr interpolationmode  none
attr title  "packets dropped (checksum error), count"
scalar scenarioPRJP1.node[2].udp 	droppedPkWrongPort:count 	0
attr interpolationmode  none
attr title  "packets dropped (wrong port), count"
scalar scenarioPRJP1.node[2].udp 	passedUpPk:count 	379
attr interpolationmode  none
attr title  "packets passed up, count"
scalar scenarioPRJP1.node[2].udp 	rcvdPk:count 	379
attr interpolationmode  none
attr source  rcvdPk
attr title  "packets received, count"
scalar scenarioPRJP1.node[2].udp 	rcvdPk:sum(packetBytes) 	197080
attr interpolationmode  none
attr source  rcvdPk
attr title  "packets received, sum(packetBytes)"
scalar scenarioPRJP1.node[2].udp 	sentPk:count 	2607
attr interpolationmode  none
attr source  sentPk
attr title  "packets sent, count"
scalar scenarioPRJP1.node[2].udp 	sentPk:sum(packetBytes) 	1355640
attr interpolationmode  none
attr source  sentPk
attr title  "packets sent, sum(packetBytes)"
scalar scenarioPRJP1.node[2].networkLayer.arp 	failedARPResolution:count 	65
attr title  "ARP failed resolutions, count"
scalar scenarioPRJP1.node[2].networkLayer.arp 	completedARPResolution:count 	104
attr title  "ARP completed resolutions, count"
scalar scenarioPRJP1.node[2].networkLayer.arp 	initiatedARPResolution:count 	78
attr title  "ARP initiated resolutions, count"
scalar scenarioPRJP1.node[2].networkLayer.arp 	sentReply:count 	12
attr title  "ARP replies sent, count"
scalar scenarioPRJP1.node[2].networkLayer.arp 	sentReq:count 	221
attr title  "ARP request sent, count"
scalar scenarioPRJP1.node[2].mobility 	startTime 	0.1
scalar scenarioPRJP1.node[2].mobility 	totalTime 	949.9
scalar scenarioPRJP1.node[2].mobility 	stopTime 	950
scalar scenarioPRJP1.node[2].mobility 	minSpeed 	0
scalar scenarioPRJP1.node[2].mobility 	maxSpeed 	21.671988197992
scalar scenarioPRJP1.node[2].mobility 	totalDistance 	11141.519870776
scalar scenarioPRJP1.node[2].mobility 	totalCO2Emission 	3096.557321871
scalar scenarioPRJP1.node[2].wlan[0].mgmt 	dataQueueLen:max 	100
attr interpolationmode  sample-hold
attr title  "data queue length, max"
scalar scenarioPRJP1.node[2].wlan[0].mgmt 	dataQueueLen:timeavg 	0.037199997408718
attr interpolationmode  sample-hold
attr title  "data queue length, timeavg"
scalar scenarioPRJP1.node[2].wlan[0].mgmt 	dropPkByQueue:count 	0
attr interpolationmode  none
attr source  dropPkByQueue
attr title  "packets dropped by queue, count"
scalar scenarioPRJP1.node[2].wlan[0].mgmt 	dropPkByQueue:sum(packetBytes) 	0
attr interpolationmode  none
attr source  dropPkByQueue
attr title  "packets dropped by queue, sum(packetBytes)"
scalar scenarioPRJP1.node[2].wlan[0].mac 	"number of received packets" 	1978
scalar scenarioPRJP1.node[2].wlan[0].mac 	"number of collisions" 	285
scalar scenarioPRJP1.node[2].wlan[0].mac 	"number of internal collisions" 	0
scalar scenarioPRJP1.node[2].wlan[0].mac 	"number of retry for AC 0" 	4473
scalar scenarioPRJP1.node[2].wlan[0].mac 	"number of retry for AC 1" 	0
scalar scenarioPRJP1.node[2].wlan[0].mac 	"number of retry for AC 2" 	0
scalar scenarioPRJP1.node[2].wlan[0].mac 	"number of retry for AC 3" 	0
scalar scenarioPRJP1.node[2].wlan[0].mac 	"sent and received bits" 	3039616
scalar scenarioPRJP1.node[2].wlan[0].mac 	"sent packet within AC 0" 	306
scalar scenarioPRJP1.node[2].wlan[0].mac 	"sent packet within AC 1" 	0
scalar scenarioPRJP1.node[2].wlan[0].mac 	"sent packet within AC 2" 	0
scalar scenarioPRJP1.node[2].wlan[0].mac 	"sent packet within AC 3" 	0
scalar scenarioPRJP1.node[2].wlan[0].mac 	"sent in TXOP " 	0
scalar scenarioPRJP1.node[2].wlan[0].mac 	"sentWithoutRetry AC 0" 	264
scalar scenarioPRJP1.node[2].wlan[0].mac 	"sentWithoutRetry AC 1" 	0
scalar scenarioPRJP1.node[2].wlan[0].mac 	"sentWithoutRetry AC 2" 	0
scalar scenarioPRJP1.node[2].wlan[0].mac 	"sentWithoutRetry AC 3" 	0
scalar scenarioPRJP1.node[2].wlan[0].mac 	"numGivenUp AC 0" 	736
scalar scenarioPRJP1.node[2].wlan[0].mac 	"numGivenUp AC 1" 	0
scalar scenarioPRJP1.node[2].wlan[0].mac 	"numGivenUp AC 2" 	0
scalar scenarioPRJP1.node[2].wlan[0].mac 	"numGivenUp AC 3" 	0
scalar scenarioPRJP1.node[2].wlan[0].mac 	"numDropped AC 0" 	117
scalar scenarioPRJP1.node[2].wlan[0].mac 	"numDropped AC 1" 	0
scalar scenarioPRJP1.node[2].wlan[0].mac 	"numDropped AC 2" 	0
scalar scenarioPRJP1.node[2].wlan[0].mac 	"numDropped AC 3" 	0
scalar scenarioPRJP1.node[2].wlan[0].mac 	rcvdPkFromLL:count 	12670
attr interpolationmode  none
attr source  packetReceivedFromLower
attr title  "packets received from lower layer, count"
scalar scenarioPRJP1.node[2].wlan[0].mac 	rcvdPkFromLL:sum(packetBytes) 	3882798
attr interpolationmode  none
attr source  packetReceivedFromLower
attr title  "packets received from lower layer, sum(packetBytes)"
scalar scenarioPRJP1.node[2].wlan[0].mac 	sentDownPk:count 	9903
attr interpolationmode  none
attr source  packetSentToLower
attr title  "packets sent to lower layer, count"
scalar scenarioPRJP1.node[2].wlan[0].mac 	sentDownPk:sum(packetBytes) 	3223816
attr interpolationmode  none
attr source  packetSentToLower
attr title  "packets sent to lower layer, sum(packetBytes)"
scalar scenarioPRJP1.node[2].wlan[0].mac 	rcvdPkFromHL:count 	3569
attr interpolationmode  none
attr source  packetReceivedFromUpper
attr title  "packets received from higher layer, count"
scalar scenarioPRJP1.node[2].wlan[0].mac 	rcvdPkFromHL:sum(packetBytes) 	831768
attr interpolationmode  none
attr source  packetReceivedFromUpper
attr title  "packets received from higher layer, sum(packetBytes)"
scalar scenarioPRJP1.node[2].wlan[0].mac 	passedUpPk:count 	2609
attr interpolationmode  none
attr source  packetSentToUpper
attr title  "packets passed to higher layer, count"
scalar scenarioPRJP1.node[2].wlan[0].mac 	passedUpPk:sum(packetBytes) 	616100
attr interpolationmode  none
attr source  packetSentToUpper
attr title  "packets passed to higher layer, sum(packetBytes)"
statistic scenarioPRJP1.node[2].wlan[0].radio 	radioChannel:histogram
field count 1
field mean 3
field stddev -nan
field sum 3
field sqrsum 9
field min 3
field max 3
attr interpolationmode  sample-hold
attr source  radioChannelChanged
attr title  "Radio channel, histogram"
bin	-INF	0
bin	2	0
bin	3	1
bin	4	0
scalar scenarioPRJP1.node[2].wlan[0].radio 	transmissionState:count 	39612
attr interpolationmode  sample-hold
attr source  transmissionStateChanged
attr title  "Radio transmission state, count"
scalar scenarioPRJP1.node[2].wlan[0].radio 	receptionState:count 	45308
attr interpolationmode  sample-hold
attr source  receptionStateChanged
attr title  "Radio reception state, count"
scalar scenarioPRJP1.node[2].wlan[0].radio 	radioMode:count 	19808
attr interpolationmode  sample-hold
attr source  radioModeChanged
attr title  "Radio mode, count"
statistic scenarioPRJP1.node[2].wlan[0].radio 	symbolErrorRate:histogram
field count 0
field mean -nan
field stddev -nan
field sum 0
field sqrsum 0
field min -nan
field max -nan
attr source  symbolErrorRate
attr title  "Symbol error rate, histogram"
bin	-INF	0
bin	-0.5	0
bin	-0.46666666666667	0
bin	-0.43333333333333	0
bin	-0.4	0
bin	-0.36666666666667	0
bin	-0.33333333333333	0
bin	-0.3	0
bin	-0.26666666666667	0
bin	-0.23333333333333	0
bin	-0.2	0
bin	-0.16666666666667	0
bin	-0.13333333333333	0
bin	-0.1	0
bin	-0.066666666666667	0
bin	-0.033333333333333	0
bin	0	0
bin	0.033333333333333	0
bin	0.066666666666667	0
bin	0.1	0
bin	0.13333333333333	0
bin	0.16666666666667	0
bin	0.2	0
bin	0.23333333333333	0
bin	0.26666666666667	0
bin	0.3	0
bin	0.33333333333333	0
bin	0.36666666666667	0
bin	0.4	0
bin	0.43333333333333	0
bin	0.46666666666667	0
bin	0.5	0
statistic scenarioPRJP1.node[2].wlan[0].radio 	bitErrorRate:histogram
field count 0
field mean -nan
field stddev -nan
field sum 0
field sqrsum 0
field min -nan
field max -nan
attr source  bitErrorRate
attr title  "Bit error rate, histogram"
bin	-INF	0
bin	-0.5	0
bin	-0.46666666666667	0
bin	-0.43333333333333	0
bin	-0.4	0
bin	-0.36666666666667	0
bin	-0.33333333333333	0
bin	-0.3	0
bin	-0.26666666666667	0
bin	-0.23333333333333	0
bin	-0.2	0
bin	-0.16666666666667	0
bin	-0.13333333333333	0
bin	-0.1	0
bin	-0.066666666666667	0
bin	-0.033333333333333	0
bin	0	0
bin	0.033333333333333	0
bin	0.066666666666667	0
bin	0.1	0
bin	0.13333333333333	0
bin	0.16666666666667	0
bin	0.2	0
bin	0.23333333333333	0
bin	0.26666666666667	0
bin	0.3	0
bin	0.33333333333333	0
bin	0.36666666666667	0
bin	0.4	0
bin	0.43333333333333	0
bin	0.46666666666667	0
bin	0.5	0
statistic scenarioPRJP1.node[2].wlan[0].radio 	packetErrorRate:histogram
field count 12670
field mean 0.021004704284048
field stddev 0.14092367675236
field sum 266.12960327888
field sqrsum 257.18975955677
field min 0
field max 1
attr source  packetErrorRate
attr title  "Packet error rate, histogram"
bin	-INF	370
bin	-4.1211478674086e-12	0
bin	-3.5716614850874e-12	0
bin	-3.0221751027663e-12	0
bin	-2.4726887204451e-12	0
bin	-1.923202338124e-12	0
bin	-1.3737159558029e-12	0
bin	-8.2422957348172e-13	0
bin	-2.7474319116057e-13	12023
bin	2.7474319116057e-13	7
bin	8.2422957348172e-13	6
bin	1.3737159558029e-12	2
bin	1.923202338124e-12	0
bin	2.4726887204451e-12	1
bin	3.0221751027663e-12	3
bin	3.5716614850874e-12	1
bin	4.1211478674086e-12	1
bin	4.6706342497297e-12	1
bin	5.2201206320509e-12	1
bin	5.769607014372e-12	2
bin	6.3190933966932e-12	1
bin	6.8685797790143e-12	0
bin	7.4180661613354e-12	1
bin	7.9675525436566e-12	2
bin	8.5170389259777e-12	0
bin	9.0665253082989e-12	1
bin	9.61601169062e-12	1
bin	1.0165498072941e-11	0
bin	1.0714984455262e-11	0
bin	1.1264470837583e-11	0
bin	1.1813957219905e-11	0
bin	1.2363443602226e-11	246
statistic scenarioPRJP1.node[2].wlan[0].radio 	minSNIR:histogram
field count 12670
field mean 1994.768928966
field stddev 16144.833736134
field sum 25273722.329999
field sqrsum 3352661746541.9
field min 0.0041849083216859
field max 698884.22893926
attr source  minSNIR
attr title  "Min SNIR, histogram"
bin	-INF	0
bin	-2478.6487301301	0
bin	-2147.1295410957	0
bin	-1815.6103520614	0
bin	-1484.091163027	0
bin	-1152.5719739926	0
bin	-821.05278495828	0
bin	-489.53359592393	0
bin	-158.01440688957	3751
bin	173.50478214479	4425
bin	505.02397117915	1087
bin	836.54316021351	677
bin	1168.0623492479	460
bin	1499.5815382822	375
bin	1831.1007273166	289
bin	2162.6199163509	230
bin	2494.1391053853	182
bin	2825.6582944197	163
bin	3157.177483454	131
bin	3488.6966724884	112
bin	3820.2158615227	92
bin	4151.7350505571	67
bin	4483.2542395914	60
bin	4814.7734286258	50
bin	5146.2926176602	64
bin	5477.8118066945	38
bin	5809.3309957289	30
bin	6140.8501847632	22
bin	6472.3693737976	29
bin	6803.888562832	24
bin	7135.4077518663	21
bin	7466.9269409007	291
scalar scenarioPRJP1.node[2].lo0.lo 	droppedPkBitError:count 	0
attr interpolationmode  none
attr source  dropPkBitError
attr title  "packets dropped/bit error, count"
scalar scenarioPRJP1.node[2].lo0.lo 	droppedPkBitError:sum(packetBytes) 	0
attr interpolationmode  none
attr source  dropPkBitError
attr title  "packets dropped/bit error, sum(packetBytes)"
scalar scenarioPRJP1.node[2].lo0.lo 	rcvdPkFromHL:count 	0
attr interpolationmode  none
attr source  packetReceivedFromUpper
attr title  "packets received from higher layer, count"
scalar scenarioPRJP1.node[2].lo0.lo 	rcvdPkFromHL:sum(packetBytes) 	0
attr interpolationmode  none
attr source  packetReceivedFromUpper
attr title  "packets received from higher layer, sum(packetBytes)"
scalar scenarioPRJP1.node[2].lo0.lo 	passedUpPk:count 	0
attr interpolationmode  none
attr source  packetSentToUpper
attr title  "packets passed to higher layer, count"
scalar scenarioPRJP1.node[2].lo0.lo 	passedUpPk:sum(packetBytes) 	0
attr interpolationmode  none
attr source  packetSentToUpper
attr title  "packets passed to higher layer, sum(packetBytes)"
scalar scenarioPRJP1.node[7].app 	"Total sent" 	2618
scalar scenarioPRJP1.node[7].app 	"Total received" 	207
scalar scenarioPRJP1.node[7].app 	"Total deleted" 	58
scalar scenarioPRJP1.node[7].app 	dropPk:count 	58
attr interpolationmode  none
attr source  dropPk
attr title  "packets dropped, count"
scalar scenarioPRJP1.node[7].app 	dropPk:sum(packetBytes) 	29696
attr interpolationmode  none
attr source  dropPk
attr title  "packets dropped, sum(packetBytes)"
scalar scenarioPRJP1.node[7].app 	outOfOrderPk:count 	503
attr interpolationmode  none
attr source  outOfOrderPk
attr title  "packets received out of order, count"
scalar scenarioPRJP1.node[7].app 	outOfOrderPk:sum(packetBytes) 	257536
attr interpolationmode  none
attr source  outOfOrderPk
attr title  "packets received out of order, sum(packetBytes)"
scalar scenarioPRJP1.node[7].app 	rcvdPk:count 	207
attr interpolationmode  none
attr source  rcvdPk
attr title  "packets received, count"
scalar scenarioPRJP1.node[7].app 	rcvdPk:sum(packetBytes) 	105984
attr interpolationmode  none
attr source  rcvdPk
attr title  "packets received, sum(packetBytes)"
statistic scenarioPRJP1.node[7].app 	endToEndDelay:histogram
field count 207
field mean 1.5318464113487
field stddev 3.681368951095
field sum 317.09220714918
field sqrsum 3277.54689453
field min 0.000945280299
field max 19.474203085056
attr interpolationmode  none
attr source  messageAge(rcvdPk)
attr title  "delay, histogram"
attr unit  s
bin	-INF	0
bin	-9.7356836220795	0
bin	-8.4374664350957	0
bin	-7.1392492481119	0
bin	-5.8410320611281	0
bin	-4.5428148741443	0
bin	-3.2445976871605	0
bin	-1.9463805001767	0
bin	-0.6481633131929	156
bin	0.6500538737909	12
bin	1.9482710607747	7
bin	3.2464882477585	8
bin	4.5447054347423	6
bin	5.8429226217261	4
bin	7.1411398087099	0
bin	8.4393569956937	2
bin	9.7375741826775	2
bin	11.035791369661	1
bin	12.334008556645	3
bin	13.632225743629	1
bin	14.930442930613	2
bin	16.228660117596	1
bin	17.52687730458	1
bin	18.825094491564	1
bin	20.123311678548	0
bin	21.421528865532	0
bin	22.719746052515	0
bin	24.017963239499	0
bin	25.316180426483	0
bin	26.614397613467	0
bin	27.912614800451	0
bin	29.210831987435	0
scalar scenarioPRJP1.node[7].app 	sentPk:count 	2618
attr interpolationmode  none
attr source  sentPk
attr title  "packets sent, count"
scalar scenarioPRJP1.node[7].app 	sentPk:sum(packetBytes) 	1340416
attr interpolationmode  none
attr source  sentPk
attr title  "packets sent, sum(packetBytes)"
scalar scenarioPRJP1.node[7].udp 	droppedPkBadChecksum:count 	0
attr interpolationmode  none
attr title  "packets dropped (checksum error), count"
scalar scenarioPRJP1.node[7].udp 	droppedPkWrongPort:count 	0
attr interpolationmode  none
attr title  "packets dropped (wrong port), count"
scalar scenarioPRJP1.node[7].udp 	passedUpPk:count 	768
attr interpolationmode  none
attr title  "packets passed up, count"
scalar scenarioPRJP1.node[7].udp 	rcvdPk:count 	768
attr interpolationmode  none
attr source  rcvdPk
attr title  "packets received, count"
scalar scenarioPRJP1.node[7].udp 	rcvdPk:sum(packetBytes) 	399360
attr interpolationmode  none
attr source  rcvdPk
attr title  "packets received, sum(packetBytes)"
scalar scenarioPRJP1.node[7].udp 	sentPk:count 	2618
attr interpolationmode  none
attr source  sentPk
attr title  "packets sent, count"
scalar scenarioPRJP1.node[7].udp 	sentPk:sum(packetBytes) 	1361360
attr interpolationmode  none
attr source  sentPk
attr title  "packets sent, sum(packetBytes)"
scalar scenarioPRJP1.node[7].networkLayer.arp 	failedARPResolution:count 	86
attr title  "ARP failed resolutions, count"
scalar scenarioPRJP1.node[7].networkLayer.arp 	completedARPResolution:count 	143
attr title  "ARP completed resolutions, count"
scalar scenarioPRJP1.node[7].networkLayer.arp 	initiatedARPResolution:count 	105
attr title  "ARP initiated resolutions, count"
scalar scenarioPRJP1.node[7].networkLayer.arp 	sentReply:count 	16
attr title  "ARP replies sent, count"
scalar scenarioPRJP1.node[7].networkLayer.arp 	sentReq:count 	294
attr title  "ARP request sent, count"
scalar scenarioPRJP1.node[7].mobility 	startTime 	2.5
scalar scenarioPRJP1.node[7].mobility 	totalTime 	947.5
scalar scenarioPRJP1.node[7].mobility 	stopTime 	950
scalar scenarioPRJP1.node[7].mobility 	minSpeed 	2.4755451417585e-13
scalar scenarioPRJP1.node[7].mobility 	maxSpeed 	20.170826246694
scalar scenarioPRJP1.node[7].mobility 	totalDistance 	10360.823595802
scalar scenarioPRJP1.node[7].mobility 	totalCO2Emission 	2862.2647136735
scalar scenarioPRJP1.node[7].wlan[0].mgmt 	dataQueueLen:max 	100
attr interpolationmode  sample-hold
attr title  "data queue length, max"
scalar scenarioPRJP1.node[7].wlan[0].mgmt 	dataQueueLen:timeavg 	0.06034692845095
attr interpolationmode  sample-hold
attr title  "data queue length, timeavg"
scalar scenarioPRJP1.node[7].wlan[0].mgmt 	dropPkByQueue:count 	61
attr interpolationmode  none
attr source  dropPkByQueue
attr title  "packets dropped by queue, count"
scalar scenarioPRJP1.node[7].wlan[0].mgmt 	dropPkByQueue:sum(packetBytes) 	34644
attr interpolationmode  none
attr source  dropPkByQueue
attr title  "packets dropped by queue, sum(packetBytes)"
scalar scenarioPRJP1.node[7].wlan[0].mac 	"number of received packets" 	2576
scalar scenarioPRJP1.node[7].wlan[0].mac 	"number of collisions" 	273
scalar scenarioPRJP1.node[7].wlan[0].mac 	"number of internal collisions" 	0
scalar scenarioPRJP1.node[7].wlan[0].mac 	"number of retry for AC 0" 	5906
scalar scenarioPRJP1.node[7].wlan[0].mac 	"number of retry for AC 1" 	0
scalar scenarioPRJP1.node[7].wlan[0].mac 	"number of retry for AC 2" 	0
scalar scenarioPRJP1.node[7].wlan[0].mac 	"number of retry for AC 3" 	0
scalar scenarioPRJP1.node[7].wlan[0].mac 	"sent and received bits" 	2905536
scalar scenarioPRJP1.node[7].wlan[0].mac 	"sent packet within AC 0" 	280
scalar scenarioPRJP1.node[7].wlan[0].mac 	"sent packet within AC 1" 	0
scalar scenarioPRJP1.node[7].wlan[0].mac 	"sent packet within AC 2" 	0
scalar scenarioPRJP1.node[7].wlan[0].mac 	"sent packet within AC 3" 	0
scalar scenarioPRJP1.node[7].wlan[0].mac 	"sent in TXOP " 	0
scalar scenarioPRJP1.node[7].wlan[0].mac 	"sentWithoutRetry AC 0" 	259
scalar scenarioPRJP1.node[7].wlan[0].mac 	"sentWithoutRetry AC 1" 	0
scalar scenarioPRJP1.node[7].wlan[0].mac 	"sentWithoutRetry AC 2" 	0
scalar scenarioPRJP1.node[7].wlan[0].mac 	"sentWithoutRetry AC 3" 	0
scalar scenarioPRJP1.node[7].wlan[0].mac 	"numGivenUp AC 0" 	980
scalar scenarioPRJP1.node[7].wlan[0].mac 	"numGivenUp AC 1" 	0
scalar scenarioPRJP1.node[7].wlan[0].mac 	"numGivenUp AC 2" 	0
scalar scenarioPRJP1.node[7].wlan[0].mac 	"numGivenUp AC 3" 	0
scalar scenarioPRJP1.node[7].wlan[0].mac 	"numDropped AC 0" 	171
scalar scenarioPRJP1.node[7].wlan[0].mac 	"numDropped AC 1" 	0
scalar scenarioPRJP1.node[7].wlan[0].mac 	"numDropped AC 2" 	0
scalar scenarioPRJP1.node[7].wlan[0].mac 	"numDropped AC 3" 	0
scalar scenarioPRJP1.node[7].wlan[0].mac 	rcvdPkFromLL:count 	11137
attr interpolationmode  none
attr source  packetReceivedFromLower
attr title  "packets received from lower layer, count"
scalar scenarioPRJP1.node[7].wlan[0].mac 	rcvdPkFromLL:sum(packetBytes) 	3655166
attr interpolationmode  none
attr source  packetReceivedFromLower
attr title  "packets received from lower layer, sum(packetBytes)"
scalar scenarioPRJP1.node[7].wlan[0].mac 	sentDownPk:count 	12240
attr interpolationmode  none
attr source  packetSentToLower
attr title  "packets sent to lower layer, count"
scalar scenarioPRJP1.node[7].wlan[0].mac 	sentDownPk:sum(packetBytes) 	4077640
attr interpolationmode  none
attr source  packetSentToLower
attr title  "packets sent to lower layer, sum(packetBytes)"
scalar scenarioPRJP1.node[7].wlan[0].mac 	rcvdPkFromHL:count 	3929
attr interpolationmode  none
attr source  packetReceivedFromUpper
attr title  "packets received from higher layer, count"
scalar scenarioPRJP1.node[7].wlan[0].mac 	rcvdPkFromHL:sum(packetBytes) 	967652
attr interpolationmode  none
attr source  packetReceivedFromUpper
attr title  "packets received from higher layer, sum(packetBytes)"
scalar scenarioPRJP1.node[7].wlan[0].mac 	passedUpPk:count 	3757
attr interpolationmode  none
attr source  packetSentToUpper
attr title  "packets passed to higher layer, count"
[...]
scalar scenarioPRJP1.node[4].wlan[0].mac 	passedUpPk:count 	3769
attr interpolationmode  none
attr source  packetSentToUpper
attr title  "packets passed to higher layer, count"
scalar scenarioPRJP1.node[4].wlan[0].mac 	passedUpPk:sum(packetBytes) 	1045712
attr interpolationmode  none
attr source  packetSentToUpper
attr title  "packets passed to higher layer, sum(packetBytes)"
statistic scenarioPRJP1.node[4].wlan[0].radio 	radioChannel:histogram
field count 1
field mean 3
field stddev -nan
field sum 3
field sqrsum 9
field min 3
field max 3
attr interpolationmode  sample-hold
attr source  radioChannelChanged
attr title  "Radio channel, histogram"
bin	-INF	0
bin	2	0
bin	3	1
bin	4	0
scalar scenarioPRJP1.node[4].wlan[0].radio 	transmissionState:count 	37744
attr interpolationmode  sample-hold
attr source  transmissionStateChanged
attr title  "Radio transmission state, count"
scalar scenarioPRJP1.node[4].wlan[0].radio 	receptionState:count 	42740
attr interpolationmode  sample-hold
attr source  receptionStateChanged
attr title  "Radio reception state, count"
scalar scenarioPRJP1.node[4].wlan[0].radio 	radioMode:count 	18874
attr interpolationmode  sample-hold
attr source  radioModeChanged
attr title  "Radio mode, count"
statistic scenarioPRJP1.node[4].wlan[0].radio 	symbolErrorRate:histogram
field count 0
field mean -nan
field stddev -nan
field sum 0
field sqrsum 0
field min -nan
field max -nan
attr source  symbolErrorRate
attr title  "Symbol error rate, histogram"
bin	-INF	0
bin	-0.5	0
bin	-0.46666666666667	0
bin	-0.43333333333333	0
bin	-0.4	0
bin	-0.36666666666667	0
bin	-0.33333333333333	0
bin	-0.3	0
bin	-0.26666666666667	0
bin	-0.23333333333333	0
bin	-0.2	0
bin	-0.16666666666667	0
bin	-0.13333333333333	0
bin	-0.1	0
bin	-0.066666666666667	0
bin	-0.033333333333333	0
bin	0	0
bin	0.033333333333333	0
bin	0.066666666666667	0
bin	0.1	0
bin	0.13333333333333	0
bin	0.16666666666667	0
bin	0.2	0
bin	0.23333333333333	0
bin	0.26666666666667	0
bin	0.3	0
bin	0.33333333333333	0
bin	0.36666666666667	0
bin	0.4	0
bin	0.43333333333333	0
bin	0.46666666666667	0
bin	0.5	0
statistic scenarioPRJP1.node[4].wlan[0].radio 	bitErrorRate:histogram
field count 0
field mean -nan
field stddev -nan
field sum 0
field sqrsum 0
field min -nan
field max -nan
attr source  bitErrorRate
attr title  "Bit error rate, histogram"
bin	-INF	0
bin	-0.5	0
bin	-0.46666666666667	0
bin	-0.43333333333333	0
bin	-0.4	0
bin	-0.36666666666667	0
bin	-0.33333333333333	0
bin	-0.3	0
bin	-0.26666666666667	0
bin	-0.23333333333333	0
bin	-0.2	0
bin	-0.16666666666667	0
bin	-0.13333333333333	0
bin	-0.1	0
bin	-0.066666666666667	0
bin	-0.033333333333333	0
bin	0	0
bin	0.033333333333333	0
bin	0.066666666666667	0
bin	0.1	0
bin	0.13333333333333	0
bin	0.16666666666667	0
bin	0.2	0
bin	0.23333333333333	0
bin	0.26666666666667	0
bin	0.3	0
bin	0.33333333333333	0
bin	0.36666666666667	0
bin	0.4	0
bin	0.43333333333333	0
bin	0.46666666666667	0
bin	0.5	0
statistic scenarioPRJP1.node[4].wlan[0].radio 	packetErrorRate:histogram
field count 11855
field mean 0.023842842019236
field stddev 0.14851325857968
field sum 282.65689213804
field sqrsum 268.19339586814
field min 0
field max 1
attr source  packetErrorRate
attr title  "Packet error rate, histogram"
bin	-INF	0
bin	-0.5	0
bin	-0.43333333333333	0
bin	-0.36666666666667	0
bin	-0.3	0
bin	-0.23333333333333	0
bin	-0.16666666666667	0
bin	-0.1	0
bin	-0.033333333333333	11516
bin	0.033333333333333	21
bin	0.1	5
bin	0.16666666666667	11
bin	0.23333333333333	8
bin	0.3	8
bin	0.36666666666667	6
bin	0.43333333333333	8
bin	0.5	2
bin	0.56666666666667	1
bin	0.63333333333333	5
bin	0.7	3
bin	0.76666666666667	2
bin	0.83333333333333	3
bin	0.9	6
bin	0.96666666666667	250
bin	1.0333333333333	0
bin	1.1	0
bin	1.1666666666667	0
bin	1.2333333333333	0
bin	1.3	0
bin	1.3666666666667	0
bin	1.4333333333333	0
bin	1.5	0
statistic scenarioPRJP1.node[4].wlan[0].radio 	minSNIR:histogram
field count 11855
field mean 11701.819209488
field stddev 57035.054831609
field sum 138725066.72848
field sqrsum 40184367774388
field min 0.00092215308641223
field max 1622064.450331
attr source  minSNIR
attr title  "Min SNIR, histogram"
bin	-INF	0
bin	-4892.543073322	0
bin	-4240.1990976643	0
bin	-3587.8551220066	0
bin	-2935.5111463489	0
bin	-2283.1671706911	0
bin	-1630.8231950334	0
bin	-978.47921937573	0
bin	-326.13524371803	5847
bin	326.20873193968	1637
bin	978.55270759739	523
bin	1630.8966832551	358
bin	2283.2406589128	281
bin	2935.5846345705	238
bin	3587.9286102282	189
bin	4240.2725858859	189
bin	4892.6165615436	148
bin	5544.9605372013	127
bin	6197.304512859	105
bin	6849.6484885167	107
bin	7501.9924641745	103
bin	8154.3364398322	108
bin	8806.6804154899	79
bin	9459.0243911476	88
bin	10111.368366805	65
bin	10763.712342463	65
bin	11416.056318121	62
bin	12068.400293778	64
bin	12720.744269436	71
bin	13373.088245094	44
bin	14025.432220752	53
bin	14677.776196409	1304
scalar scenarioPRJP1.node[4].lo0.lo 	droppedPkBitError:count 	0
attr interpolationmode  none
attr source  dropPkBitError
attr title  "packets dropped/bit error, count"
scalar scenarioPRJP1.node[4].lo0.lo 	droppedPkBitError:sum(packetBytes) 	0
attr interpolationmode  none
attr source  dropPkBitError
attr title  "packets dropped/bit error, sum(packetBytes)"
scalar scenarioPRJP1.node[4].lo0.lo 	rcvdPkFromHL:count 	0
attr interpolationmode  none
attr source  packetReceivedFromUpper
attr title  "packets received from higher layer, count"
scalar scenarioPRJP1.node[4].lo0.lo 	rcvdPkFromHL:sum(packetBytes) 	0
attr interpolationmode  none
attr source  packetReceivedFromUpper
attr title  "packets received from higher layer, sum(packetBytes)"
scalar scenarioPRJP1.node[4].lo0.lo 	passedUpPk:count 	0
attr interpolationmode  none
attr source  packetSentToUpper
attr title  "packets passed to higher layer, count"
scalar scenarioPRJP1.node[4].lo0.lo 	passedUpPk:sum(packetBytes) 	0
attr interpolationmode  none
attr source  packetSentToUpper
attr title  "packets passed to higher layer, sum(packetBytes)"
scalar scenarioPRJP1.node[9].app 	"Total sent" 	2609
scalar scenarioPRJP1.node[9].app 	"Total received" 	272
scalar scenarioPRJP1.node[9].app 	"Total deleted" 	118
scalar scenarioPRJP1.node[9].app 	dropPk:count 	118
attr interpolationmode  none
attr source  dropPk
attr title  "packets dropped, count"
scalar scenarioPRJP1.node[9].app 	dropPk:sum(packetBytes) 	60416
attr interpolationmode  none
attr source  dropPk
attr title  "packets dropped, sum(packetBytes)"
scalar scenarioPRJP1.node[9].app 	outOfOrderPk:count 	406
attr interpolationmode  none
attr source  outOfOrderPk
attr title  "packets received out of order, count"
scalar scenarioPRJP1.node[9].app 	outOfOrderPk:sum(packetBytes) 	207872
attr interpolationmode  none
attr source  outOfOrderPk
attr title  "packets received out of order, sum(packetBytes)"
scalar scenarioPRJP1.node[9].app 	rcvdPk:count 	272
attr interpolationmode  none
attr source  rcvdPk
attr title  "packets received, count"
scalar scenarioPRJP1.node[9].app 	rcvdPk:sum(packetBytes) 	139264
attr interpolationmode  none
attr source  rcvdPk
attr title  "packets received, sum(packetBytes)"
statistic scenarioPRJP1.node[9].app 	endToEndDelay:histogram
field count 272
field mean 4.9635827809422
field stddev 6.2248276388801
field sum 1350.0945164163
field sqrsum 17202.143739579
field min 0.000945158486
field max 19.859879268568
attr interpolationmode  none
attr source  messageAge(rcvdPk)
attr title  "delay, histogram"
attr unit  s
bin	-INF	0
bin	-9.928500772289	0
bin	-8.6045727704731	0
bin	-7.2806447686573	0
bin	-5.9567167668414	0
bin	-4.6327887650255	0
bin	-3.3088607632097	0
bin	-1.9849327613938	0
bin	-0.66100475957793	117
bin	0.66292324223793	24
bin	1.9868512440538	16
bin	3.3107792458697	13
bin	4.6347072476855	10
bin	5.9586352495014	13
bin	7.2825632513173	12
bin	8.6064912531331	7
bin	9.930419254949	7
bin	11.254347256765	4
bin	12.578275258581	9
bin	13.902203260397	6
bin	15.226131262212	11
bin	16.550059264028	8
bin	17.873987265844	11
bin	19.19791526766	4
bin	20.521843269476	0
bin	21.845771271292	0
bin	23.169699273108	0
bin	24.493627274924	0
bin	25.817555276739	0
bin	27.141483278555	0
bin	28.465411280371	0
bin	29.789339282187	0
scalar scenarioPRJP1.node[9].app 	sentPk:count 	2609
attr interpolationmode  none
attr source  sentPk
attr title  "packets sent, count"
scalar scenarioPRJP1.node[9].app 	sentPk:sum(packetBytes) 	1335808
attr interpolationmode  none
attr source  sentPk
attr title  "packets sent, sum(packetBytes)"
scalar scenarioPRJP1.node[9].udp 	droppedPkBadChecksum:count 	0
attr interpolationmode  none
attr title  "packets dropped (checksum error), count"
scalar scenarioPRJP1.node[9].udp 	droppedPkWrongPort:count 	0
attr interpolationmode  none
attr title  "packets dropped (wrong port), count"
scalar scenarioPRJP1.node[9].udp 	passedUpPk:count 	796
attr interpolationmode  none
attr title  "packets passed up, count"
scalar scenarioPRJP1.node[9].udp 	rcvdPk:count 	796
attr interpolationmode  none
attr source  rcvdPk
attr title  "packets received, count"
scalar scenarioPRJP1.node[9].udp 	rcvdPk:sum(packetBytes) 	413920
attr interpolationmode  none
attr source  rcvdPk
attr title  "packets received, sum(packetBytes)"
scalar scenarioPRJP1.node[9].udp 	sentPk:count 	2609
attr interpolationmode  none
attr source  sentPk
attr title  "packets sent, count"
scalar scenarioPRJP1.node[9].udp 	sentPk:sum(packetBytes) 	1356680
attr interpolationmode  none
attr source  sentPk
attr title  "packets sent, sum(packetBytes)"
scalar scenarioPRJP1.node[9].networkLayer.arp 	failedARPResolution:count 	64
attr title  "ARP failed resolutions, count"
scalar scenarioPRJP1.node[9].networkLayer.arp 	completedARPResolution:count 	243
attr title  "ARP completed resolutions, count"
scalar scenarioPRJP1.node[9].networkLayer.arp 	initiatedARPResolution:count 	76
attr title  "ARP initiated resolutions, count"
scalar scenarioPRJP1.node[9].networkLayer.arp 	sentReply:count 	25
attr title  "ARP replies sent, count"
scalar scenarioPRJP1.node[9].networkLayer.arp 	sentReq:count 	214
attr title  "ARP request sent, count"
scalar scenarioPRJP1.node[9].mobility 	startTime 	2.5
scalar scenarioPRJP1.node[9].mobility 	totalTime 	947.5
scalar scenarioPRJP1.node[9].mobility 	stopTime 	950
scalar scenarioPRJP1.node[9].mobility 	minSpeed 	2.4754782177184e-13
scalar scenarioPRJP1.node[9].mobility 	maxSpeed 	18.541466349953
scalar scenarioPRJP1.node[9].mobility 	totalDistance 	8483.4999423891
scalar scenarioPRJP1.node[9].mobility 	totalCO2Emission 	2419.8256923909
scalar scenarioPRJP1.node[9].wlan[0].mgmt 	dataQueueLen:max 	100
attr interpolationmode  sample-hold
attr title  "data queue length, max"
scalar scenarioPRJP1.node[9].wlan[0].mgmt 	dataQueueLen:timeavg 	0.060423001566625
attr interpolationmode  sample-hold
attr title  "data queue length, timeavg"
scalar scenarioPRJP1.node[9].wlan[0].mgmt 	dropPkByQueue:count 	172
attr interpolationmode  none
attr source  dropPkByQueue
attr title  "packets dropped by queue, count"
scalar scenarioPRJP1.node[9].wlan[0].mgmt 	dropPkByQueue:sum(packetBytes) 	98580
attr interpolationmode  none
attr source  dropPkByQueue
attr title  "packets dropped by queue, sum(packetBytes)"
scalar scenarioPRJP1.node[9].wlan[0].mac 	"number of received packets" 	2163
scalar scenarioPRJP1.node[9].wlan[0].mac 	"number of collisions" 	454
scalar scenarioPRJP1.node[9].wlan[0].mac 	"number of internal collisions" 	0
scalar scenarioPRJP1.node[9].wlan[0].mac 	"number of retry for AC 0" 	7355
scalar scenarioPRJP1.node[9].wlan[0].mac 	"number of retry for AC 1" 	0
scalar scenarioPRJP1.node[9].wlan[0].mac 	"number of retry for AC 2" 	0
scalar scenarioPRJP1.node[9].wlan[0].mac 	"number of retry for AC 3" 	0
scalar scenarioPRJP1.node[9].wlan[0].mac 	"sent and received bits" 	3977632
scalar scenarioPRJP1.node[9].wlan[0].mac 	"sent packet within AC 0" 	383
scalar scenarioPRJP1.node[9].wlan[0].mac 	"sent packet within AC 1" 	0
scalar scenarioPRJP1.node[9].wlan[0].mac 	"sent packet within AC 2" 	0
scalar scenarioPRJP1.node[9].wlan[0].mac 	"sent packet within AC 3" 	0
scalar scenarioPRJP1.node[9].wlan[0].mac 	"sent in TXOP " 	0
scalar scenarioPRJP1.node[9].wlan[0].mac 	"sentWithoutRetry AC 0" 	365
scalar scenarioPRJP1.node[9].wlan[0].mac 	"sentWithoutRetry AC 1" 	0
scalar scenarioPRJP1.node[9].wlan[0].mac 	"sentWithoutRetry AC 2" 	0
scalar scenarioPRJP1.node[9].wlan[0].mac 	"sentWithoutRetry AC 3" 	0
scalar scenarioPRJP1.node[9].wlan[0].mac 	"numGivenUp AC 0" 	1222
scalar scenarioPRJP1.node[9].wlan[0].mac 	"numGivenUp AC 1" 	0
scalar scenarioPRJP1.node[9].wlan[0].mac 	"numGivenUp AC 2" 	0
scalar scenarioPRJP1.node[9].wlan[0].mac 	"numGivenUp AC 3" 	0
scalar scenarioPRJP1.node[9].wlan[0].mac 	"numDropped AC 0" 	199
scalar scenarioPRJP1.node[9].wlan[0].mac 	"numDropped AC 1" 	0
scalar scenarioPRJP1.node[9].wlan[0].mac 	"numDropped AC 2" 	0
scalar scenarioPRJP1.node[9].wlan[0].mac 	"numDropped AC 3" 	0
scalar scenarioPRJP1.node[9].wlan[0].mac 	rcvdPkFromLL:count 	13596
attr interpolationmode  none
attr source  packetReceivedFromLower
attr title  "packets received from lower layer, count"
scalar scenarioPRJP1.node[9].wlan[0].mac 	rcvdPkFromLL:sum(packetBytes) 	4293200
attr interpolationmode  none
attr source  packetReceivedFromLower
attr title  "packets received from lower layer, sum(packetBytes)"
scalar scenarioPRJP1.node[9].wlan[0].mac 	sentDownPk:count 	14396
attr interpolationmode  none
attr source  packetSentToLower
attr title  "packets sent to lower layer, count"
scalar scenarioPRJP1.node[9].wlan[0].mac 	sentDownPk:sum(packetBytes) 	5133994
attr interpolationmode  none
attr source  packetSentToLower
attr title  "packets sent to lower layer, sum(packetBytes)"
scalar scenarioPRJP1.node[9].wlan[0].mac 	rcvdPkFromHL:count 	5077
attr interpolationmode  none
attr source  packetReceivedFromUpper
attr title  "packets received from higher layer, count"
scalar scenarioPRJP1.node[9].wlan[0].mac 	rcvdPkFromHL:sum(packetBytes) 	1247612
attr interpolationmode  none
attr source  packetReceivedFromUpper
attr title  "packets received from higher layer, sum(packetBytes)"
scalar scenarioPRJP1.node[9].wlan[0].mac 	passedUpPk:count 	3837
attr interpolationmode  none
attr source  packetSentToUpper
attr title  "packets passed to higher layer, count"
scalar scenarioPRJP1.node[9].wlan[0].mac 	passedUpPk:sum(packetBytes) 	791100
attr interpolationmode  none
attr source  packetSentToUpper
attr title  "packets passed to higher layer, sum(packetBytes)"
statistic scenarioPRJP1.node[9].wlan[0].radio 	radioChannel:histogram
field count 1
field mean 3
field stddev -nan
field sum 3
field sqrsum 9
field min 3
field max 3
attr interpolationmode  sample-hold
attr source  radioChannelChanged
attr title  "Radio channel, histogram"
bin	-INF	0
bin	2	0
bin	3	1
bin	4	0
scalar scenarioPRJP1.node[9].wlan[0].radio 	transmissionState:count 	57584
attr interpolationmode  sample-hold
attr source  transmissionStateChanged
attr title  "Radio transmission state, count"
scalar scenarioPRJP1.node[9].wlan[0].radio 	receptionState:count 	56072
attr interpolationmode  sample-hold
attr source  receptionStateChanged
attr title  "Radio reception state, count"
scalar scenarioPRJP1.node[9].wlan[0].radio 	radioMode:count 	28794
attr interpolationmode  sample-hold
attr source  radioModeChanged
attr title  "Radio mode, count"
statistic scenarioPRJP1.node[9].wlan[0].radio 	symbolErrorRate:histogram
field count 0
field mean -nan
field stddev -nan
field sum 0
field sqrsum 0
field min -nan
field max -nan
attr source  symbolErrorRate
attr title  "Symbol error rate, histogram"
bin	-INF	0
bin	-0.5	0
bin	-0.46666666666667	0
bin	-0.43333333333333	0
bin	-0.4	0
bin	-0.36666666666667	0
bin	-0.33333333333333	0
bin	-0.3	0
bin	-0.26666666666667	0
bin	-0.23333333333333	0
bin	-0.2	0
bin	-0.16666666666667	0
bin	-0.13333333333333	0
bin	-0.1	0
bin	-0.066666666666667	0
bin	-0.033333333333333	0
bin	0	0
bin	0.033333333333333	0
bin	0.066666666666667	0
bin	0.1	0
bin	0.13333333333333	0
bin	0.16666666666667	0
bin	0.2	0
bin	0.23333333333333	0
bin	0.26666666666667	0
bin	0.3	0
bin	0.33333333333333	0
bin	0.36666666666667	0
bin	0.4	0
bin	0.43333333333333	0
bin	0.46666666666667	0
bin	0.5	0
statistic scenarioPRJP1.node[9].wlan[0].radio 	bitErrorRate:histogram
field count 0
field mean -nan
field stddev -nan
field sum 0
field sqrsum 0
field min -nan
field max -nan
attr source  bitErrorRate
attr title  "Bit error rate, histogram"
bin	-INF	0
bin	-0.5	0
bin	-0.46666666666667	0
bin	-0.43333333333333	0
bin	-0.4	0
bin	-0.36666666666667	0
bin	-0.33333333333333	0
bin	-0.3	0
bin	-0.26666666666667	0
bin	-0.23333333333333	0
bin	-0.2	0
bin	-0.16666666666667	0
bin	-0.13333333333333	0
bin	-0.1	0
bin	-0.066666666666667	0
bin	-0.033333333333333	0
bin	0	0
bin	0.033333333333333	0
bin	0.066666666666667	0
bin	0.1	0
bin	0.13333333333333	0
bin	0.16666666666667	0
bin	0.2	0
bin	0.23333333333333	0
bin	0.26666666666667	0
bin	0.3	0
bin	0.33333333333333	0
bin	0.36666666666667	0
bin	0.4	0
bin	0.43333333333333	0
bin	0.46666666666667	0
bin	0.5	0
statistic scenarioPRJP1.node[9].wlan[0].radio 	packetErrorRate:histogram
field count 13596
field mean 0.030885241901842
field stddev 0.16902908572353
field sum 419.91574889745
field sqrsum 401.38965808321
field min 0
field max 1
attr source  packetErrorRate
attr title  "Packet error rate, histogram"
bin	-INF	0
bin	-0.5	0
bin	-0.43333333333333	0
bin	-0.36666666666667	0
bin	-0.3	0
bin	-0.23333333333333	0
bin	-0.16666666666667	0
bin	-0.1	0
bin	-0.033333333333333	13107
bin	0.033333333333333	23
bin	0.1	12
bin	0.16666666666667	13
bin	0.23333333333333	9
bin	0.3	8
bin	0.36666666666667	6
bin	0.43333333333333	6
bin	0.5	3
bin	0.56666666666667	6
bin	0.63333333333333	5
bin	0.7	4
bin	0.76666666666667	4
bin	0.83333333333333	8
bin	0.9	8
bin	0.96666666666667	374
bin	1.0333333333333	0
bin	1.1	0
bin	1.1666666666667	0
bin	1.2333333333333	0
bin	1.3	0
bin	1.3666666666667	0
bin	1.4333333333333	0
bin	1.5	0
statistic scenarioPRJP1.node[9].wlan[0].radio 	minSNIR:histogram
field count 13596
field mean 1446.8348120938
field stddev 5344.2808519516
field sum 19671166.105228
field sqrsum 416752315640.09
field min 0.022509739106593
field max 144382.406451
attr source  minSNIR
attr title  "Min SNIR, histogram"
bin	-INF	0
bin	-8684.2824974984	0
bin	-7526.3731078135	0
bin	-6368.4637181286	0
bin	-5210.5543284437	0
bin	-4052.6449387588	0
bin	-2894.7355490739	0
bin	-1736.826159389	0
bin	-578.91676970407	10123
bin	578.99261998083	1812
bin	1736.9020096657	471
bin	2894.8113993506	262
bin	4052.7207890355	154
bin	5210.6301787204	131
bin	6368.5395684053	80
bin	7526.4489580902	60
bin	8684.3583477751	54
bin	9842.26773746	53
bin	11000.177127145	41
bin	12158.08651683	26
bin	13315.995906515	22
bin	14473.9052962	30
bin	15631.814685885	18
bin	16789.724075569	19
bin	17947.633465254	17
bin	19105.542854939	16
bin	20263.452244624	15
bin	21421.361634309	19
bin	22579.271023994	20
bin	23737.180413679	8
bin	24895.089803364	13
bin	26052.999193049	132
scalar scenarioPRJP1.node[9].lo0.lo 	droppedPkBitError:count 	0
attr interpolationmode  none
attr source  dropPkBitError
attr title  "packets dropped/bit error, count"
scalar scenarioPRJP1.node[9].lo0.lo 	droppedPkBitError:sum(packetBytes) 	0
attr interpolationmode  none
attr source  dropPkBitError
attr title  "packets dropped/bit error, sum(packetBytes)"
scalar scenarioPRJP1.node[9].lo0.lo 	rcvdPkFromHL:count 	0
attr interpolationmode  none
attr source  packetReceivedFromUpper
attr title  "packets received from higher layer, count"
scalar scenarioPRJP1.node[9].lo0.lo 	rcvdPkFromHL:sum(packetBytes) 	0
attr interpolationmode  none
attr source  packetReceivedFromUpper
attr title  "packets received from higher layer, sum(packetBytes)"
scalar scenarioPRJP1.node[9].lo0.lo 	passedUpPk:count 	0
attr interpolationmode  none
attr source  packetSentToUpper
attr title  "packets passed to higher layer, count"
scalar scenarioPRJP1.node[9].lo0.lo 	passedUpPk:sum(packetBytes) 	0
attr interpolationmode  none
attr source  packetSentToUpper
attr title  "packets passed to higher layer, sum(packetBytes)"
