version 2
run AODVRouting-LNS-10n-43-20150818-14:03:23-28234
attr configname AODVRouting-LNS-10n
attr datetime 20150818-14:03:23
attr experiment AODVRouting-LNS-10n
attr inifile omnetpp.ini
attr iterationvars ""
attr iterationvars2 $repetition=43
attr measurement ""
attr network Prj_Part1_propag.scenarioPRJP1
attr processid 28234
attr repetition 43
attr replication #43
attr resultdir results
attr runnumber 43
attr seedset 43

scalar scenarioPRJP1.radioMedium.propagation 	"Arrival computation count" 	948609
scalar scenarioPRJP1.radioMedium 	"transmission count" 	105401
scalar scenarioPRJP1.radioMedium 	"radio frame send count" 	948609
scalar scenarioPRJP1.radioMedium 	"reception computation count" 	945700
scalar scenarioPRJP1.radioMedium 	"interference computation count" 	2886267
scalar scenarioPRJP1.radioMedium 	"reception decision computation count" 	124872
scalar scenarioPRJP1.radioMedium 	"listening decision computation count" 	1826038
scalar scenarioPRJP1.radioMedium 	"reception cache hit" 	71.802084445258
attr unit  %
scalar scenarioPRJP1.radioMedium 	"interference cache hit" 	50
attr unit  %
scalar scenarioPRJP1.radioMedium 	"noise cache hit" 	0
attr unit  %
scalar scenarioPRJP1.radioMedium 	"snir cache hit" 	0
attr unit  %
scalar scenarioPRJP1.radioMedium 	"reception decision cache hit" 	0
attr unit  %
scalar scenarioPRJP1.node[0].app 	"Total sent" 	2607
scalar scenarioPRJP1.node[0].app 	"Total received" 	107
scalar scenarioPRJP1.node[0].app 	"Total deleted" 	91
scalar scenarioPRJP1.node[0].app 	dropPk:count 	91
attr interpolationmode  none
attr source  dropPk
attr title  "packets dropped, count"
scalar scenarioPRJP1.node[0].app 	dropPk:sum(packetBytes) 	46592
attr interpolationmode  none
attr source  dropPk
attr title  "packets dropped, sum(packetBytes)"
scalar scenarioPRJP1.node[0].app 	outOfOrderPk:count 	199
attr interpolationmode  none
attr source  outOfOrderPk
attr title  "packets received out of order, count"
scalar scenarioPRJP1.node[0].app 	outOfOrderPk:sum(packetBytes) 	101888
attr interpolationmode  none
attr source  outOfOrderPk
attr title  "packets received out of order, sum(packetBytes)"
scalar scenarioPRJP1.node[0].app 	rcvdPk:count 	107
attr interpolationmode  none
attr source  rcvdPk
attr title  "packets received, count"
scalar scenarioPRJP1.node[0].app 	rcvdPk:sum(packetBytes) 	54784
attr interpolationmode  none
attr source  rcvdPk
attr title  "packets received, sum(packetBytes)"
statistic scenarioPRJP1.node[0].app 	endToEndDelay:histogram
field count 107
field mean 3.7122913127542
field stddev 6.2202557603973
field sum 397.2151704647
field sqrsum 5575.8860894344
field min 0.000945037343
field max 19.118293205253
attr interpolationmode  none
attr source  messageAge(rcvdPk)
attr title  "delay, histogram"
attr unit  s
bin	-INF	0
bin	-9.557729046612	0
bin	-8.2832391687513	0
bin	-7.0087492908907	0
bin	-5.73425941303	0
bin	-4.4597695351693	0
bin	-3.1852796573087	0
bin	-1.910789779448	0
bin	-0.63629990158733	66
bin	0.63818997627333	5
bin	1.912679854134	6
bin	3.1871697319947	5
bin	4.4616596098553	0
bin	5.736149487716	1
bin	7.0106393655767	0
bin	8.2851292434373	3
bin	9.559619121298	2
bin	10.834108999159	3
bin	12.108598877019	1
bin	13.38308875488	1
bin	14.657578632741	4
bin	15.932068510601	1
bin	17.206558388462	6
bin	18.481048266323	3
bin	19.755538144183	0
bin	21.030028022044	0
bin	22.304517899905	0
bin	23.579007777765	0
bin	24.853497655626	0
bin	26.127987533487	0
bin	27.402477411347	0
bin	28.676967289208	0
scalar scenarioPRJP1.node[0].app 	sentPk:count 	2607
attr interpolationmode  none
attr source  sentPk
attr title  "packets sent, count"
scalar scenarioPRJP1.node[0].app 	sentPk:sum(packetBytes) 	1334784
attr interpolationmode  none
attr source  sentPk
attr title  "packets sent, sum(packetBytes)"
scalar scenarioPRJP1.node[0].udp 	droppedPkBadChecksum:count 	0
attr interpolationmode  none
attr title  "packets dropped (checksum error), count"
scalar scenarioPRJP1.node[0].udp 	droppedPkWrongPort:count 	0
attr interpolationmode  none
attr title  "packets dropped (wrong port), count"
scalar scenarioPRJP1.node[0].udp 	passedUpPk:count 	397
attr interpolationmode  none
attr title  "packets passed up, count"
scalar scenarioPRJP1.node[0].udp 	rcvdPk:count 	397
attr interpolationmode  none
attr source  rcvdPk
attr title  "packets received, count"
scalar scenarioPRJP1.node[0].udp 	rcvdPk:sum(packetBytes) 	206440
attr interpolationmode  none
attr source  rcvdPk
attr title  "packets received, sum(packetBytes)"
scalar scenarioPRJP1.node[0].udp 	sentPk:count 	2607
attr interpolationmode  none
attr source  sentPk
attr title  "packets sent, count"
scalar scenarioPRJP1.node[0].udp 	sentPk:sum(packetBytes) 	1355640
attr interpolationmode  none
attr source  sentPk
attr title  "packets sent, sum(packetBytes)"
scalar scenarioPRJP1.node[0].networkLayer.arp 	failedARPResolution:count 	67
attr title  "ARP failed resolutions, count"
scalar scenarioPRJP1.node[0].networkLayer.arp 	completedARPResolution:count 	110
attr title  "ARP completed resolutions, count"
scalar scenarioPRJP1.node[0].networkLayer.arp 	initiatedARPResolution:count 	80
attr title  "ARP initiated resolutions, count"
scalar scenarioPRJP1.node[0].networkLayer.arp 	sentReply:count 	18
attr title  "ARP replies sent, count"
scalar scenarioPRJP1.node[0].networkLayer.arp 	sentReq:count 	223
attr title  "ARP request sent, count"
scalar scenarioPRJP1.node[0].mobility 	startTime 	0.1
scalar scenarioPRJP1.node[0].mobility 	totalTime 	949.9
scalar scenarioPRJP1.node[0].mobility 	stopTime 	950
scalar scenarioPRJP1.node[0].mobility 	minSpeed 	2.4755259966791e-13
scalar scenarioPRJP1.node[0].mobility 	maxSpeed 	17.167235121316
scalar scenarioPRJP1.node[0].mobility 	totalDistance 	8934.9886179849
scalar scenarioPRJP1.node[0].mobility 	totalCO2Emission 	2352.9933336003
scalar scenarioPRJP1.node[0].wlan[0].mgmt 	dataQueueLen:max 	100
attr interpolationmode  sample-hold
attr title  "data queue length, max"
scalar scenarioPRJP1.node[0].wlan[0].mgmt 	dataQueueLen:timeavg 	0.043955252290462
attr interpolationmode  sample-hold
attr title  "data queue length, timeavg"
scalar scenarioPRJP1.node[0].wlan[0].mgmt 	dropPkByQueue:count 	67
attr interpolationmode  none
attr source  dropPkByQueue
attr title  "packets dropped by queue, count"
scalar scenarioPRJP1.node[0].wlan[0].mgmt 	dropPkByQueue:sum(packetBytes) 	38592
attr interpolationmode  none
attr source  dropPkByQueue
attr title  "packets dropped by queue, sum(packetBytes)"
scalar scenarioPRJP1.node[0].wlan[0].mac 	"number of received packets" 	1504
scalar scenarioPRJP1.node[0].wlan[0].mac 	"number of collisions" 	329
scalar scenarioPRJP1.node[0].wlan[0].mac 	"number of internal collisions" 	0
scalar scenarioPRJP1.node[0].wlan[0].mac 	"number of retry for AC 0" 	4261
scalar scenarioPRJP1.node[0].wlan[0].mac 	"number of retry for AC 1" 	0
scalar scenarioPRJP1.node[0].wlan[0].mac 	"number of retry for AC 2" 	0
scalar scenarioPRJP1.node[0].wlan[0].mac 	"number of retry for AC 3" 	0
scalar scenarioPRJP1.node[0].wlan[0].mac 	"sent and received bits" 	1955648
scalar scenarioPRJP1.node[0].wlan[0].mac 	"sent packet within AC 0" 	102
scalar scenarioPRJP1.node[0].wlan[0].mac 	"sent packet within AC 1" 	0
scalar scenarioPRJP1.node[0].wlan[0].mac 	"sent packet within AC 2" 	0
scalar scenarioPRJP1.node[0].wlan[0].mac 	"sent packet within AC 3" 	0
scalar scenarioPRJP1.node[0].wlan[0].mac 	"sent in TXOP " 	0
scalar scenarioPRJP1.node[0].wlan[0].mac 	"sentWithoutRetry AC 0" 	98
scalar scenarioPRJP1.node[0].wlan[0].mac 	"sentWithoutRetry AC 1" 	0
scalar scenarioPRJP1.node[0].wlan[0].mac 	"sentWithoutRetry AC 2" 	0
scalar scenarioPRJP1.node[0].wlan[0].mac 	"sentWithoutRetry AC 3" 	0
scalar scenarioPRJP1.node[0].wlan[0].mac 	"numGivenUp AC 0" 	709
scalar scenarioPRJP1.node[0].wlan[0].mac 	"numGivenUp AC 1" 	0
scalar scenarioPRJP1.node[0].wlan[0].mac 	"numGivenUp AC 2" 	0
scalar scenarioPRJP1.node[0].wlan[0].mac 	"numGivenUp AC 3" 	0
scalar scenarioPRJP1.node[0].wlan[0].mac 	"numDropped AC 0" 	105
scalar scenarioPRJP1.node[0].wlan[0].mac 	"numDropped AC 1" 	0
scalar scenarioPRJP1.node[0].wlan[0].mac 	"numDropped AC 2" 	0
scalar scenarioPRJP1.node[0].wlan[0].mac 	"numDropped AC 3" 	0
scalar scenarioPRJP1.node[0].wlan[0].mac 	rcvdPkFromLL:count 	8340
attr interpolationmode  none
attr source  packetReceivedFromLower
attr title  "packets received from lower layer, count"
scalar scenarioPRJP1.node[0].wlan[0].mac 	rcvdPkFromLL:sum(packetBytes) 	2693030
attr interpolationmode  none
attr source  packetReceivedFromLower
attr title  "packets received from lower layer, sum(packetBytes)"
scalar scenarioPRJP1.node[0].wlan[0].mac 	sentDownPk:count 	8790
attr interpolationmode  none
attr source  packetSentToLower
attr title  "packets sent to lower layer, count"
scalar scenarioPRJP1.node[0].wlan[0].mac 	sentDownPk:sum(packetBytes) 	2914644
attr interpolationmode  none
attr source  packetSentToLower
attr title  "packets sent to lower layer, sum(packetBytes)"
scalar scenarioPRJP1.node[0].wlan[0].mac 	rcvdPkFromHL:count 	3130
attr interpolationmode  none
attr source  packetReceivedFromUpper
attr title  "packets received from higher layer, count"
scalar scenarioPRJP1.node[0].wlan[0].mac 	rcvdPkFromHL:sum(packetBytes) 	672800
attr interpolationmode  none
attr source  packetReceivedFromUpper
attr title  "packets received from higher layer, sum(packetBytes)"
scalar scenarioPRJP1.node[0].wlan[0].mac 	passedUpPk:count 	2412
attr interpolationmode  none
attr source  packetSentToUpper
attr title  "packets passed to higher layer, count"
scalar scenarioPRJP1.node[0].wlan[0].mac 	passedUpPk:sum(packetBytes) 	494752
attr interpolationmode  none
attr source  packetSentToUpper
attr title  "packets passed to higher layer, sum(packetBytes)"
statistic scenarioPRJP1.node[0].wlan[0].radio 	radioChannel:histogram
field count 1
field mean 3
field stddev -nan
field sum 3
field sqrsum 9
field min 3
field max 3
attr interpolationmode  sample-hold
attr source  radioChannelChanged
attr title  "Radio channel, histogram"
bin	-INF	0
bin	2	0
bin	3	1
bin	4	0
scalar scenarioPRJP1.node[0].wlan[0].radio 	transmissionState:count 	35160
attr interpolationmode  sample-hold
attr source  transmissionStateChanged
attr title  "Radio transmission state, count"
scalar scenarioPRJP1.node[0].wlan[0].radio 	receptionState:count 	34327
attr interpolationmode  sample-hold
attr source  receptionStateChanged
attr title  "Radio reception state, count"
scalar scenarioPRJP1.node[0].wlan[0].radio 	radioMode:count 	17582
attr interpolationmode  sample-hold
attr source  radioModeChanged
attr title  "Radio mode, count"
statistic scenarioPRJP1.node[0].wlan[0].radio 	symbolErrorRate:histogram
field count 0
field mean -nan
field stddev -nan
field sum 0
field sqrsum 0
field min -nan
field max -nan
attr source  symbolErrorRate
attr title  "Symbol error rate, histogram"
bin	-INF	0
bin	-0.5	0
bin	-0.46666666666667	0
bin	-0.43333333333333	0
bin	-0.4	0
bin	-0.36666666666667	0
bin	-0.33333333333333	0
bin	-0.3	0
bin	-0.26666666666667	0
bin	-0.23333333333333	0
bin	-0.2	0
bin	-0.16666666666667	0
bin	-0.13333333333333	0
bin	-0.1	0
bin	-0.066666666666667	0
bin	-0.033333333333333	0
bin	0	0
bin	0.033333333333333	0
bin	0.066666666666667	0
bin	0.1	0
bin	0.13333333333333	0
bin	0.16666666666667	0
bin	0.2	0
bin	0.23333333333333	0
bin	0.26666666666667	0
bin	0.3	0
bin	0.33333333333333	0
bin	0.36666666666667	0
bin	0.4	0
bin	0.43333333333333	0
bin	0.46666666666667	0
bin	0.5	0
statistic scenarioPRJP1.node[0].wlan[0].radio 	bitErrorRate:histogram
field count 0
field mean -nan
field stddev -nan
field sum 0
field sqrsum 0
field min -nan
field max -nan
attr source  bitErrorRate
attr title  "Bit error rate, histogram"
bin	-INF	0
bin	-0.5	0
bin	-0.46666666666667	0
bin	-0.43333333333333	0
bin	-0.4	0
bin	-0.36666666666667	0
bin	-0.33333333333333	0
bin	-0.3	0
bin	-0.26666666666667	0
bin	-0.23333333333333	0
bin	-0.2	0
bin	-0.16666666666667	0
bin	-0.13333333333333	0
bin	-0.1	0
bin	-0.066666666666667	0
bin	-0.033333333333333	0
bin	0	0
bin	0.033333333333333	0
bin	0.066666666666667	0
bin	0.1	0
bin	0.13333333333333	0
bin	0.16666666666667	0
bin	0.2	0
bin	0.23333333333333	0
bin	0.26666666666667	0
bin	0.3	0
bin	0.33333333333333	0
bin	0.36666666666667	0
bin	0.4	0
bin	0.43333333333333	0
bin	0.46666666666667	0
bin	0.5	0
statistic scenarioPRJP1.node[0].wlan[0].radio 	packetErrorRate:histogram
field count 8340
field mean 0.038324782993785
field stddev 0.18657670235902
field sum 319.62869016816
field sqrsum 302.53751062223
field min 0
field max 1
attr source  packetErrorRate
attr title  "Packet error rate, histogram"
bin	-INF	0
bin	-0.5	0
bin	-0.43333333333333	0
bin	-0.36666666666667	0
bin	-0.3	0
bin	-0.23333333333333	0
bin	-0.16666666666667	0
bin	-0.1	0
bin	-0.033333333333333	7954
bin	0.033333333333333	22
bin	0.1	13
bin	0.16666666666667	12
bin	0.23333333333333	7
bin	0.3	6
bin	0.36666666666667	4
bin	0.43333333333333	6
bin	0.5	6
bin	0.56666666666667	5
bin	0.63333333333333	5
bin	0.7	5
bin	0.76666666666667	11
bin	0.83333333333333	1
bin	0.9	2
bin	0.96666666666667	281
bin	1.0333333333333	0
bin	1.1	0
bin	1.1666666666667	0
bin	1.2333333333333	0
bin	1.3	0
bin	1.3666666666667	0
bin	1.4333333333333	0
bin	1.5	0
statistic scenarioPRJP1.node[0].wlan[0].radio 	minSNIR:histogram
field count 8340
field mean 796.57172645724
field stddev 2933.6083263095
field sum 6643408.1986534
field sqrsum 77057867234.233
field min 0.020180069852054
field max 86965.706584572
attr source  minSNIR
attr title  "Min SNIR, histogram"
bin	-INF	0
bin	-1454.1553245211	0
bin	-1260.0773403432	0
bin	-1065.9993561653	0
bin	-871.92137198735	0
bin	-677.84338780944	0
bin	-483.76540363153	0
bin	-289.68741945362	0
bin	-95.60943527571	1124
bin	98.4685489022	4513
bin	292.54653308011	1012
bin	486.62451725802	390
bin	680.70250143593	207
bin	874.78048561384	151
bin	1068.8584697917	92
bin	1262.9364539697	87
bin	1457.0144381476	62
bin	1651.0924223255	56
bin	1845.1704065034	38
bin	2039.2483906813	37
bin	2233.3263748592	39
bin	2427.4043590371	34
bin	2621.482343215	31
bin	2815.5603273929	26
bin	3009.6383115708	30
bin	3203.7162957488	26
bin	3397.7942799267	20
bin	3591.8722641046	17
bin	3785.9502482825	11
bin	3980.0282324604	18
bin	4174.1062166383	20
bin	4368.1842008162	299
scalar scenarioPRJP1.node[0].lo0.lo 	droppedPkBitError:count 	0
attr interpolationmode  none
attr source  dropPkBitError
attr title  "packets dropped/bit error, count"
scalar scenarioPRJP1.node[0].lo0.lo 	droppedPkBitError:sum(packetBytes) 	0
attr interpolationmode  none
attr source  dropPkBitError
attr title  "packets dropped/bit error, sum(packetBytes)"
scalar scenarioPRJP1.node[0].lo0.lo 	rcvdPkFromHL:count 	0
attr interpolationmode  none
attr source  packetReceivedFromUpper
attr title  "packets received from higher layer, count"
scalar scenarioPRJP1.node[0].lo0.lo 	rcvdPkFromHL:sum(packetBytes) 	0
attr interpolationmode  none
attr source  packetReceivedFromUpper
attr title  "packets received from higher layer, sum(packetBytes)"
scalar scenarioPRJP1.node[0].lo0.lo 	passedUpPk:count 	0
attr interpolationmode  none
attr source  packetSentToUpper
attr title  "packets passed to higher layer, count"
scalar scenarioPRJP1.node[0].lo0.lo 	passedUpPk:sum(packetBytes) 	0
attr interpolationmode  none
attr source  packetSentToUpper
attr title  "packets passed to higher layer, sum(packetBytes)"
scalar scenarioPRJP1.node[5].app 	"Total sent" 	2608
scalar scenarioPRJP1.node[5].app 	"Total received" 	157
scalar scenarioPRJP1.node[5].app 	"Total deleted" 	186
scalar scenarioPRJP1.node[5].app 	dropPk:count 	186
attr interpolationmode  none
attr source  dropPk
attr title  "packets dropped, count"
scalar scenarioPRJP1.node[5].app 	dropPk:sum(packetBytes) 	95232
attr interpolationmode  none
attr source  dropPk
attr title  "packets dropped, sum(packetBytes)"
scalar scenarioPRJP1.node[5].app 	outOfOrderPk:count 	102
attr interpolationmode  none
attr source  outOfOrderPk
attr title  "packets received out of order, count"
scalar scenarioPRJP1.node[5].app 	outOfOrderPk:sum(packetBytes) 	52224
attr interpolationmode  none
attr source  outOfOrderPk
attr title  "packets received out of order, sum(packetBytes)"
scalar scenarioPRJP1.node[5].app 	rcvdPk:count 	157
attr interpolationmode  none
attr source  rcvdPk
attr title  "packets received, count"
scalar scenarioPRJP1.node[5].app 	rcvdPk:sum(packetBytes) 	80384
attr interpolationmode  none
attr source  rcvdPk
attr title  "packets received, sum(packetBytes)"
statistic scenarioPRJP1.node[5].app 	endToEndDelay:histogram
field count 157
field mean 2.9337257137687
field stddev 5.309461450729
field sum 460.59493706169
field sqrsum 5748.9586303868
field min 0.000945048729
field max 19.872475636253
attr interpolationmode  none
attr source  messageAge(rcvdPk)
attr title  "delay, histogram"
attr unit  s
bin	-INF	0
bin	-9.934820245033	0
bin	-8.6100515391981	0
bin	-7.2852828333631	0
bin	-5.9605141275282	0
bin	-4.6357454216933	0
bin	-3.3109767158583	0
bin	-1.9862080100234	0
bin	-0.66143930418847	103
bin	0.66332940164647	5
bin	1.9880981074814	11
bin	3.3128668133163	4
bin	4.6376355191513	3
bin	5.9624042249862	3
bin	7.2871729308211	3
bin	8.6119416366561	5
bin	9.936710342491	4
bin	11.261479048326	2
bin	12.586247754161	2
bin	13.911016459996	2
bin	15.235785165831	1
bin	16.560553871666	4
bin	17.885322577501	3
bin	19.210091283336	2
bin	20.53485998917	0
bin	21.859628695005	0
bin	23.18439740084	0
bin	24.509166106675	0
bin	25.83393481251	0
bin	27.158703518345	0
bin	28.48347222418	0
bin	29.808240930015	0
scalar scenarioPRJP1.node[5].app 	sentPk:count 	2608
attr interpolationmode  none
attr source  sentPk
attr title  "packets sent, count"
scalar scenarioPRJP1.node[5].app 	sentPk:sum(packetBytes) 	1335296
attr interpolationmode  none
attr source  sentPk
attr title  "packets sent, sum(packetBytes)"
scalar scenarioPRJP1.node[5].udp 	droppedPkBadChecksum:count 	0
attr interpolationmode  none
attr title  "packets dropped (checksum error), count"
scalar scenarioPRJP1.node[5].udp 	droppedPkWrongPort:count 	0
attr interpolationmode  none
attr title  "packets dropped (wrong port), count"
scalar scenarioPRJP1.node[5].udp 	passedUpPk:count 	445
attr interpolationmode  none
attr title  "packets passed up, count"
scalar scenarioPRJP1.node[5].udp 	rcvdPk:count 	445
attr interpolationmode  none
attr source  rcvdPk
attr title  "packets received, count"
scalar scenarioPRJP1.node[5].udp 	rcvdPk:sum(packetBytes) 	231400
attr interpolationmode  none
attr source  rcvdPk
attr title  "packets received, sum(packetBytes)"
scalar scenarioPRJP1.node[5].udp 	sentPk:count 	2608
attr interpolationmode  none
attr source  sentPk
attr title  "packets sent, count"
scalar scenarioPRJP1.node[5].udp 	sentPk:sum(packetBytes) 	1356160
attr interpolationmode  none
attr source  sentPk
attr title  "packets sent, sum(packetBytes)"
scalar scenarioPRJP1.node[5].networkLayer.arp 	failedARPResolution:count 	62
attr title  "ARP failed resolutions, count"
scalar scenarioPRJP1.node[5].networkLayer.arp 	completedARPResolution:count 	115
attr title  "ARP completed resolutions, count"
scalar scenarioPRJP1.node[5].networkLayer.arp 	initiatedARPResolution:count 	74
attr title  "ARP initiated resolutions, count"
scalar scenarioPRJP1.node[5].networkLayer.arp 	sentReply:count 	17
attr title  "ARP replies sent, count"
scalar scenarioPRJP1.node[5].networkLayer.arp 	sentReq:count 	209
attr title  "ARP request sent, count"
scalar scenarioPRJP1.node[5].mobility 	startTime 	2.5
scalar scenarioPRJP1.node[5].mobility 	totalTime 	947.5
scalar scenarioPRJP1.node[5].mobility 	stopTime 	950
scalar scenarioPRJP1.node[5].mobility 	minSpeed 	2.4755413492349e-13
scalar scenarioPRJP1.node[5].mobility 	maxSpeed 	21.248483850605
scalar scenarioPRJP1.node[5].mobility 	totalDistance 	10021.634444166
scalar scenarioPRJP1.node[5].mobility 	totalCO2Emission 	2875.7029352
scalar scenarioPRJP1.node[5].wlan[0].mgmt 	dataQueueLen:max 	78
attr interpolationmode  sample-hold
attr title  "data queue length, max"
scalar scenarioPRJP1.node[5].wlan[0].mgmt 	dataQueueLen:timeavg 	0.017931418657326
attr interpolationmode  sample-hold
attr title  "data queue length, timeavg"
scalar scenarioPRJP1.node[5].wlan[0].mgmt 	dropPkByQueue:count 	0
attr interpolationmode  none
attr source  dropPkByQueue
attr title  "packets dropped by queue, count"
scalar scenarioPRJP1.node[5].wlan[0].mgmt 	dropPkByQueue:sum(packetBytes) 	0
attr interpolationmode  none
attr source  dropPkByQueue
attr title  "packets dropped by queue, sum(packetBytes)"
scalar scenarioPRJP1.node[5].wlan[0].mac 	"number of received packets" 	1183
scalar scenarioPRJP1.node[5].wlan[0].mac 	"number of collisions" 	399
scalar scenarioPRJP1.node[5].wlan[0].mac 	"number of internal collisions" 	0
scalar scenarioPRJP1.node[5].wlan[0].mac 	"number of retry for AC 0" 	3514
scalar scenarioPRJP1.node[5].wlan[0].mac 	"number of retry for AC 1" 	0
scalar scenarioPRJP1.node[5].wlan[0].mac 	"number of retry for AC 2" 	0
scalar scenarioPRJP1.node[5].wlan[0].mac 	"number of retry for AC 3" 	0
scalar scenarioPRJP1.node[5].wlan[0].mac 	"sent and received bits" 	2286272
scalar scenarioPRJP1.node[5].wlan[0].mac 	"sent packet within AC 0" 	184
scalar scenarioPRJP1.node[5].wlan[0].mac 	"sent packet within AC 1" 	0
scalar scenarioPRJP1.node[5].wlan[0].mac 	"sent packet within AC 2" 	0
scalar scenarioPRJP1.node[5].wlan[0].mac 	"sent packet within AC 3" 	0
scalar scenarioPRJP1.node[5].wlan[0].mac 	"sent in TXOP " 	0
scalar scenarioPRJP1.node[5].wlan[0].mac 	"sentWithoutRetry AC 0" 	167
scalar scenarioPRJP1.node[5].wlan[0].mac 	"sentWithoutRetry AC 1" 	0
scalar scenarioPRJP1.node[5].wlan[0].mac 	"sentWithoutRetry AC 2" 	0
scalar scenarioPRJP1.node[5].wlan[0].mac 	"sentWithoutRetry AC 3" 	0
scalar scenarioPRJP1.node[5].wlan[0].mac 	"numGivenUp AC 0" 	581
scalar scenarioPRJP1.node[5].wlan[0].mac 	"numGivenUp AC 1" 	0
scalar scenarioPRJP1.node[5].wlan[0].mac 	"numGivenUp AC 2" 	0
scalar scenarioPRJP1.node[5].wlan[0].mac 	"numGivenUp AC 3" 	0
scalar scenarioPRJP1.node[5].wlan[0].mac 	"numDropped AC 0" 	74
scalar scenarioPRJP1.node[5].wlan[0].mac 	"numDropped AC 1" 	0
scalar scenarioPRJP1.node[5].wlan[0].mac 	"numDropped AC 2" 	0
scalar scenarioPRJP1.node[5].wlan[0].mac 	"numDropped AC 3" 	0
scalar scenarioPRJP1.node[5].wlan[0].mac 	rcvdPkFromLL:count 	9515
attr interpolationmode  none
attr source  packetReceivedFromLower
attr title  "packets received from lower layer, count"
scalar scenarioPRJP1.node[5].wlan[0].mac 	rcvdPkFromLL:sum(packetBytes) 	3407772
attr interpolationmode  none
attr source  packetReceivedFromLower
attr title  "packets received from lower layer, sum(packetBytes)"
scalar scenarioPRJP1.node[5].wlan[0].mac 	sentDownPk:count 	7608
attr interpolationmode  none
attr source  packetSentToLower
attr title  "packets sent to lower layer, count"
scalar scenarioPRJP1.node[5].wlan[0].mac 	sentDownPk:sum(packetBytes) 	2458562
attr interpolationmode  none
attr source  packetSentToLower
attr title  "packets sent to lower layer, sum(packetBytes)"
scalar scenarioPRJP1.node[5].wlan[0].mac 	rcvdPkFromHL:count 	2985
attr interpolationmode  none
attr source  packetReceivedFromUpper
attr title  "packets received from higher layer, count"
scalar scenarioPRJP1.node[5].wlan[0].mac 	rcvdPkFromHL:sum(packetBytes) 	623000
attr interpolationmode  none
attr source  packetReceivedFromUpper
attr title  "packets received from higher layer, sum(packetBytes)"
scalar scenarioPRJP1.node[5].wlan[0].mac 	passedUpPk:count 	2612
attr interpolationmode  none
attr source  packetSentToUpper
attr title  "packets passed to higher layer, count"
scalar scenarioPRJP1.node[5].wlan[0].mac 	passedUpPk:sum(packetBytes) 	501764
attr interpolationmode  none
attr source  packetSentToUpper
attr title  "packets passed to higher layer, sum(packetBytes)"
statistic scenarioPRJP1.node[5].wlan[0].radio 	radioChannel:histogram
field count 1
field mean 3
field stddev -nan
field sum 3
field sqrsum 9
field min 3
field max 3
attr interpolationmode  sample-hold
attr source  radioChannelChanged
attr title  "Radio channel, histogram"
bin	-INF	0
bin	2	0
bin	3	1
bin	4	0
scalar scenarioPRJP1.node[5].wlan[0].radio 	transmissionState:count 	30432
attr interpolationmode  sample-hold
attr source  transmissionStateChanged
attr title  "Radio transmission state, count"
scalar scenarioPRJP1.node[5].wlan[0].radio 	receptionState:count 	34314
attr interpolationmode  sample-hold
attr source  receptionStateChanged
attr title  "Radio reception state, count"
scalar scenarioPRJP1.node[5].wlan[0].radio 	radioMode:count 	15218
attr interpolationmode  sample-hold
attr source  radioModeChanged
attr title  "Radio mode, count"
statistic scenarioPRJP1.node[5].wlan[0].radio 	symbolErrorRate:histogram
field count 0
field mean -nan
field stddev -nan
field sum 0
field sqrsum 0
field min -nan
field max -nan
attr source  symbolErrorRate
attr title  "Symbol error rate, histogram"
bin	-INF	0
bin	-0.5	0
bin	-0.46666666666667	0
bin	-0.43333333333333	0
bin	-0.4	0
bin	-0.36666666666667	0
bin	-0.33333333333333	0
bin	-0.3	0
bin	-0.26666666666667	0
bin	-0.23333333333333	0
bin	-0.2	0
bin	-0.16666666666667	0
bin	-0.13333333333333	0
bin	-0.1	0
bin	-0.066666666666667	0
bin	-0.033333333333333	0
bin	0	0
bin	0.033333333333333	0
bin	0.066666666666667	0
bin	0.1	0
bin	0.13333333333333	0
bin	0.16666666666667	0
bin	0.2	0
bin	0.23333333333333	0
bin	0.26666666666667	0
bin	0.3	0
bin	0.33333333333333	0
bin	0.36666666666667	0
bin	0.4	0
bin	0.43333333333333	0
bin	0.46666666666667	0
bin	0.5	0
statistic scenarioPRJP1.node[5].wlan[0].radio 	bitErrorRate:histogram
field count 0
field mean -nan
field stddev -nan
field sum 0
field sqrsum 0
field min -nan
field max -nan
attr source  bitErrorRate
attr title  "Bit error rate, histogram"
bin	-INF	0
bin	-0.5	0
bin	-0.46666666666667	0
bin	-0.43333333333333	0
bin	-0.4	0
bin	-0.36666666666667	0
bin	-0.33333333333333	0
bin	-0.3	0
bin	-0.26666666666667	0
bin	-0.23333333333333	0
bin	-0.2	0
bin	-0.16666666666667	0
bin	-0.13333333333333	0
bin	-0.1	0
bin	-0.066666666666667	0
bin	-0.033333333333333	0
bin	0	0
bin	0.033333333333333	0
bin	0.066666666666667	0
bin	0.1	0
bin	0.13333333333333	0
bin	0.16666666666667	0
bin	0.2	0
bin	0.23333333333333	0
bin	0.26666666666667	0
bin	0.3	0
bin	0.33333333333333	0
bin	0.36666666666667	0
bin	0.4	0
bin	0.43333333333333	0
bin	0.46666666666667	0
bin	0.5	0
statistic scenarioPRJP1.node[5].wlan[0].radio 	packetErrorRate:histogram
field count 9515
field mean 0.039460974600272
field stddev 0.19020576303026
field sum 375.47117332159
field sqrsum 359.0161604399
field min 0
field max 1
attr source  packetErrorRate
attr title  "Packet error rate, histogram"
bin	-INF	0
bin	-0.5	0
bin	-0.43333333333333	0
bin	-0.36666666666667	0
bin	-0.3	0
bin	-0.23333333333333	0
bin	-0.16666666666667	0
bin	-0.1	0
bin	-0.033333333333333	9064
bin	0.033333333333333	35
bin	0.1	11
bin	0.16666666666667	13
bin	0.23333333333333	9
bin	0.3	8
bin	0.36666666666667	1
bin	0.43333333333333	6
bin	0.5	4
bin	0.56666666666667	2
bin	0.63333333333333	3
bin	0.7	5
bin	0.76666666666667	4
bin	0.83333333333333	9
bin	0.9	5
bin	0.96666666666667	336
bin	1.0333333333333	0
bin	1.1	0
bin	1.1666666666667	0
bin	1.2333333333333	0
bin	1.3	0
bin	1.3666666666667	0
bin	1.4333333333333	0
bin	1.5	0
statistic scenarioPRJP1.node[5].wlan[0].radio 	minSNIR:histogram
field count 9515
field mean 2102.986983915
field stddev 7192.382750579
field sum 20009921.151951
field sqrsum 534243340399.4
field min 0.0055985860166396
field max 118488.63377501
attr source  minSNIR
attr title  "Min SNIR, histogram"
bin	-INF	0
bin	-631.97106277804	0
bin	-547.55971400581	0
bin	-463.14836523359	0
bin	-378.73701646136	0
bin	-294.32566768914	0
bin	-209.91431891691	0
bin	-125.50297014468	0
bin	-41.091621372459	1312
bin	43.319727399767	231
bin	127.73107617199	3283
bin	212.14242494422	1161
bin	296.55377371644	614
bin	380.96512248867	358
bin	465.3764712609	243
bin	549.78782003312	179
bin	634.19916880535	159
bin	718.61051757757	128
bin	803.0218663498	113
bin	887.43321512202	90
bin	971.84456389425	61
bin	1056.2559126665	47
bin	1140.6672614387	58
bin	1225.0786102109	43
bin	1309.4899589832	47
bin	1393.9013077554	36
bin	1478.3126565276	36
bin	1562.7240052998	23
bin	1647.1353540721	28
bin	1731.5467028443	27
bin	1815.9580516165	21
bin	1900.3694003887	1217
scalar scenarioPRJP1.node[5].lo0.lo 	droppedPkBitError:count 	0
attr interpolationmode  none
attr source  dropPkBitError
attr title  "packets dropped/bit error, count"
scalar scenarioPRJP1.node[5].lo0.lo 	droppedPkBitError:sum(packetBytes) 	0
attr interpolationmode  none
attr source  dropPkBitError
attr title  "packets dropped/bit error, sum(packetBytes)"
scalar scenarioPRJP1.node[5].lo0.lo 	rcvdPkFromHL:count 	0
attr interpolationmode  none
attr source  packetReceivedFromUpper
attr title  "packets received from higher layer, count"
scalar scenarioPRJP1.node[5].lo0.lo 	rcvdPkFromHL:sum(packetBytes) 	0
attr interpolationmode  none
attr source  packetReceivedFromUpper
attr title  "packets received from higher layer, sum(packetBytes)"
scalar scenarioPRJP1.node[5].lo0.lo 	passedUpPk:count 	0
attr interpolationmode  none
attr source  packetSentToUpper
attr title  "packets passed to higher layer, count"
scalar scenarioPRJP1.node[5].lo0.lo 	passedUpPk:sum(packetBytes) 	0
attr interpolationmode  none
attr source  packetSentToUpper
attr title  "packets passed to higher layer, sum(packetBytes)"
scalar scenarioPRJP1.node[1].app 	"Total sent" 	2604
scalar scenarioPRJP1.node[1].app 	"Total received" 	217
scalar scenarioPRJP1.node[1].app 	"Total deleted" 	94
scalar scenarioPRJP1.node[1].app 	dropPk:count 	94
attr interpolationmode  none
attr source  dropPk
attr title  "packets dropped, count"
scalar scenarioPRJP1.node[1].app 	dropPk:sum(packetBytes) 	48128
attr interpolationmode  none
attr source  dropPk
attr title  "packets dropped, sum(packetBytes)"
scalar scenarioPRJP1.node[1].app 	outOfOrderPk:count 	235
attr interpolationmode  none
attr source  outOfOrderPk
attr title  "packets received out of order, count"
scalar scenarioPRJP1.node[1].app 	outOfOrderPk:sum(packetBytes) 	120320
attr interpolationmode  none
attr source  outOfOrderPk
attr title  "packets received out of order, sum(packetBytes)"
scalar scenarioPRJP1.node[1].app 	rcvdPk:count 	217
attr interpolationmode  none
attr source  rcvdPk
attr title  "packets received, count"
scalar scenarioPRJP1.node[1].app 	rcvdPk:sum(packetBytes) 	111104
attr interpolationmode  none
attr source  rcvdPk
attr title  "packets received, sum(packetBytes)"
statistic scenarioPRJP1.node[1].app 	endToEndDelay:histogram
field count 217
field mean 2.2188548974953
field stddev 4.9532677318857
field sum 481.49151275647
field sqrsum 6367.8898255099
field min 0.000945011007
field max 19.5745393732
attr interpolationmode  none
attr source  messageAge(rcvdPk)
attr title  "delay, histogram"
attr unit  s
bin	-INF	0
bin	-8.230968596932	0
bin	-7.1333801151063	0
bin	-6.0357916332805	0
bin	-4.9382031514548	0
bin	-3.8406146696291	0
bin	-2.7430261878033	0
bin	-1.6454377059776	0
bin	-0.54784922415186	158
bin	0.54973925767387	12
bin	1.6473277394996	11
bin	2.7449162213253	2
bin	3.8425047031511	2
bin	4.9400931849768	0
bin	6.0376816668025	2
bin	7.1352701486283	3
bin	8.232858630454	1
bin	9.3304471122797	2
bin	10.428035594105	5
bin	11.525624075931	3
bin	12.623212557757	1
bin	13.720801039583	2
bin	14.818389521408	2
bin	15.915978003234	3
bin	17.01356648506	2
bin	18.111154966886	3
bin	19.208743448711	3
bin	20.306331930537	0
bin	21.403920412363	0
bin	22.501508894189	0
bin	23.599097376014	0
bin	24.69668585784	0
scalar scenarioPRJP1.node[1].app 	sentPk:count 	2604
attr interpolationmode  none
attr source  sentPk
attr title  "packets sent, count"
scalar scenarioPRJP1.node[1].app 	sentPk:sum(packetBytes) 	1333248
attr interpolationmode  none
attr source  sentPk
attr title  "packets sent, sum(packetBytes)"
scalar scenarioPRJP1.node[1].udp 	droppedPkBadChecksum:count 	0
attr interpolationmode  none
attr title  "packets dropped (checksum error), count"
scalar scenarioPRJP1.node[1].udp 	droppedPkWrongPort:count 	0
attr interpolationmode  none
attr title  "packets dropped (wrong port), count"
scalar scenarioPRJP1.node[1].udp 	passedUpPk:count 	546
attr interpolationmode  none
attr title  "packets passed up, count"
scalar scenarioPRJP1.node[1].udp 	rcvdPk:count 	546
attr interpolationmode  none
attr source  rcvdPk
attr title  "packets received, count"
scalar scenarioPRJP1.node[1].udp 	rcvdPk:sum(packetBytes) 	283920
attr interpolationmode  none
attr source  rcvdPk
attr title  "packets received, sum(packetBytes)"
scalar scenarioPRJP1.node[1].udp 	sentPk:count 	2604
attr interpolationmode  none
attr source  sentPk
attr title  "packets sent, count"
scalar scenarioPRJP1.node[1].udp 	sentPk:sum(packetBytes) 	1354080
attr interpolationmode  none
attr source  sentPk
attr title  "packets sent, sum(packetBytes)"
scalar scenarioPRJP1.node[1].networkLayer.arp 	failedARPResolution:count 	94
attr title  "ARP failed resolutions, count"
scalar scenarioPRJP1.node[1].networkLayer.arp 	completedARPResolution:count 	251
attr title  "ARP completed resolutions, count"
scalar scenarioPRJP1.node[1].networkLayer.arp 	initiatedARPResolution:count 	108
attr title  "ARP initiated resolutions, count"
scalar scenarioPRJP1.node[1].networkLayer.arp 	sentReply:count 	14
attr title  "ARP replies sent, count"
scalar scenarioPRJP1.node[1].networkLayer.arp 	sentReq:count 	310
attr title  "ARP request sent, count"
scalar scenarioPRJP1.node[1].mobility 	startTime 	0.1
scalar scenarioPRJP1.node[1].mobility 	totalTime 	949.9
scalar scenarioPRJP1.node[1].mobility 	stopTime 	950
scalar scenarioPRJP1.node[1].mobility 	minSpeed 	2.4755494453252e-13
scalar scenarioPRJP1.node[1].mobility 	maxSpeed 	20.03538782485
scalar scenarioPRJP1.node[1].mobility 	totalDistance 	10280.851447866
scalar scenarioPRJP1.node[1].mobility 	totalCO2Emission 	2818.7751877729
scalar scenarioPRJP1.node[1].wlan[0].mgmt 	dataQueueLen:max 	80
attr interpolationmode  sample-hold
attr title  "data queue length, max"
scalar scenarioPRJP1.node[1].wlan[0].mgmt 	dataQueueLen:timeavg 	0.014181811852549
attr interpolationmode  sample-hold
attr title  "data queue length, timeavg"
scalar scenarioPRJP1.node[1].wlan[0].mgmt 	dropPkByQueue:count 	0
attr interpolationmode  none
attr source  dropPkByQueue
attr title  "packets dropped by queue, count"
scalar scenarioPRJP1.node[1].wlan[0].mgmt 	dropPkByQueue:sum(packetBytes) 	0
attr interpolationmode  none
attr source  dropPkByQueue
attr title  "packets dropped by queue, sum(packetBytes)"
scalar scenarioPRJP1.node[1].wlan[0].mac 	"number of received packets" 	1521
scalar scenarioPRJP1.node[1].wlan[0].mac 	"number of collisions" 	578
scalar scenarioPRJP1.node[1].wlan[0].mac 	"number of internal collisions" 	0
scalar scenarioPRJP1.node[1].wlan[0].mac 	"number of retry for AC 0" 	3252
scalar scenarioPRJP1.node[1].wlan[0].mac 	"number of retry for AC 1" 	0
scalar scenarioPRJP1.node[1].wlan[0].mac 	"number of retry for AC 2" 	0
scalar scenarioPRJP1.node[1].wlan[0].mac 	"number of retry for AC 3" 	0
scalar scenarioPRJP1.node[1].wlan[0].mac 	"sent and received bits" 	3770048
scalar scenarioPRJP1.node[1].wlan[0].mac 	"sent packet within AC 0" 	478
scalar scenarioPRJP1.node[1].wlan[0].mac 	"sent packet within AC 1" 	0
scalar scenarioPRJP1.node[1].wlan[0].mac 	"sent packet within AC 2" 	0
scalar scenarioPRJP1.node[1].wlan[0].mac 	"sent packet within AC 3" 	0
scalar scenarioPRJP1.node[1].wlan[0].mac 	"sent in TXOP " 	0
scalar scenarioPRJP1.node[1].wlan[0].mac 	"sentWithoutRetry AC 0" 	459
scalar scenarioPRJP1.node[1].wlan[0].mac 	"sentWithoutRetry AC 1" 	0
scalar scenarioPRJP1.node[1].wlan[0].mac 	"sentWithoutRetry AC 2" 	0
scalar scenarioPRJP1.node[1].wlan[0].mac 	"sentWithoutRetry AC 3" 	0
scalar scenarioPRJP1.node[1].wlan[0].mac 	"numGivenUp AC 0" 	538
scalar scenarioPRJP1.node[1].wlan[0].mac 	"numGivenUp AC 1" 	0
scalar scenarioPRJP1.node[1].wlan[0].mac 	"numGivenUp AC 2" 	0
scalar scenarioPRJP1.node[1].wlan[0].mac 	"numGivenUp AC 3" 	0
scalar scenarioPRJP1.node[1].wlan[0].mac 	"numDropped AC 0" 	69
scalar scenarioPRJP1.node[1].wlan[0].mac 	"numDropped AC 1" 	0
scalar scenarioPRJP1.node[1].wlan[0].mac 	"numDropped AC 2" 	0
scalar scenarioPRJP1.node[1].wlan[0].mac 	"numDropped AC 3" 	0
scalar scenarioPRJP1.node[1].wlan[0].mac 	rcvdPkFromLL:count 	11580
attr interpolationmode  none
attr source  packetReceivedFromLower
attr title  "packets received from lower layer, count"
scalar scenarioPRJP1.node[1].wlan[0].mac 	rcvdPkFromLL:sum(packetBytes) 	3930256
attr interpolationmode  none
attr source  packetReceivedFromLower
attr title  "packets received from lower layer, sum(packetBytes)"
scalar scenarioPRJP1.node[1].wlan[0].mac 	sentDownPk:count 	8213
attr interpolationmode  none
attr source  packetSentToLower
attr title  "packets sent to lower layer, count"
scalar scenarioPRJP1.node[1].wlan[0].mac 	sentDownPk:sum(packetBytes) 	2459118
attr interpolationmode  none
attr source  packetSentToLower
attr title  "packets sent to lower layer, sum(packetBytes)"
scalar scenarioPRJP1.node[1].wlan[0].mac 	rcvdPkFromHL:count 	3509
attr interpolationmode  none
attr source  packetReceivedFromUpper
attr title  "packets received from higher layer, count"
scalar scenarioPRJP1.node[1].wlan[0].mac 	rcvdPkFromHL:sum(packetBytes) 	783848
attr interpolationmode  none
attr source  packetReceivedFromUpper
attr title  "packets received from higher layer, sum(packetBytes)"
scalar scenarioPRJP1.node[1].wlan[0].mac 	passedUpPk:count 	3293
attr interpolationmode  none
attr source  packetSentToUpper
attr title  "packets passed to higher layer, count"
scalar scenarioPRJP1.node[1].wlan[0].mac 	passedUpPk:sum(packetBytes) 	659872
attr interpolationmode  none
attr source  packetSentToUpper
attr title  "packets passed to higher layer, sum(packetBytes)"
statistic scenarioPRJP1.node[1].wlan[0].radio 	radioChannel:histogram
field count 1
field mean 3
field stddev -nan
field sum 3
field sqrsum 9
field min 3
field max 3
attr interpolationmode  sample-hold
attr source  radioChannelChanged
attr title  "Radio channel, histogram"
bin	-INF	0
bin	2	0
bin	3	1
bin	4	0
scalar scenarioPRJP1.node[1].wlan[0].radio 	transmissionState:count 	32852
attr interpolationmode  sample-hold
attr source  transmissionStateChanged
attr title  "Radio transmission state, count"
scalar scenarioPRJP1.node[1].wlan[0].radio 	receptionState:count 	39664
attr interpolationmode  sample-hold
attr source  receptionStateChanged
attr title  "Radio reception state, count"
scalar scenarioPRJP1.node[1].wlan[0].radio 	radioMode:count 	16428
attr interpolationmode  sample-hold
attr source  radioModeChanged
attr title  "Radio mode, count"
statistic scenarioPRJP1.node[1].wlan[0].radio 	symbolErrorRate:histogram
field count 0
field mean -nan
field stddev -nan
field sum 0
field sqrsum 0
field min -nan
field max -nan
attr source  symbolErrorRate
attr title  "Symbol error rate, histogram"
bin	-INF	0
bin	-0.5	0
bin	-0.46666666666667	0
bin	-0.43333333333333	0
bin	-0.4	0
bin	-0.36666666666667	0
bin	-0.33333333333333	0
bin	-0.3	0
bin	-0.26666666666667	0
bin	-0.23333333333333	0
bin	-0.2	0
bin	-0.16666666666667	0
bin	-0.13333333333333	0
bin	-0.1	0
bin	-0.066666666666667	0
bin	-0.033333333333333	0
bin	0	0
bin	0.033333333333333	0
bin	0.066666666666667	0
bin	0.1	0
bin	0.13333333333333	0
bin	0.16666666666667	0
bin	0.2	0
bin	0.23333333333333	0
bin	0.26666666666667	0
bin	0.3	0
bin	0.33333333333333	0
bin	0.36666666666667	0
bin	0.4	0
bin	0.43333333333333	0
bin	0.46666666666667	0
bin	0.5	0
statistic scenarioPRJP1.node[1].wlan[0].radio 	bitErrorRate:histogram
field count 0
field mean -nan
field stddev -nan
field sum 0
field sqrsum 0
field min -nan
field max -nan
attr source  bitErrorRate
attr title  "Bit error rate, histogram"
bin	-INF	0
bin	-0.5	0
bin	-0.46666666666667	0
bin	-0.43333333333333	0
bin	-0.4	0
bin	-0.36666666666667	0
bin	-0.33333333333333	0
bin	-0.3	0
bin	-0.26666666666667	0
bin	-0.23333333333333	0
bin	-0.2	0
bin	-0.16666666666667	0
bin	-0.13333333333333	0
bin	-0.1	0
bin	-0.066666666666667	0
bin	-0.033333333333333	0
bin	0	0
bin	0.033333333333333	0
bin	0.066666666666667	0
bin	0.1	0
bin	0.13333333333333	0
bin	0.16666666666667	0
bin	0.2	0
bin	0.23333333333333	0
bin	0.26666666666667	0
bin	0.3	0
bin	0.33333333333333	0
bin	0.36666666666667	0
bin	0.4	0
bin	0.43333333333333	0
bin	0.46666666666667	0
bin	0.5	0
statistic scenarioPRJP1.node[1].wlan[0].radio 	packetErrorRate:histogram
field count 11580
field mean 0.048715935333615
field stddev 0.21126525784433
field sum 564.13053116327
field sqrsum 544.2877596788
field min 0
field max 1
attr source  packetErrorRate
attr title  "Packet error rate, histogram"
bin	-INF	688
bin	-2.60049759504e-11	0
bin	-2.253764582368e-11	0
bin	-1.907031569696e-11	0
bin	-1.560298557024e-11	0
bin	-1.213565544352e-11	0
bin	-8.6683253168e-12	0
bin	-5.20099519008e-12	0
bin	-1.73366506336e-12	10478
bin	1.73366506336e-12	14
bin	5.20099519008e-12	3
bin	8.6683253168e-12	5
bin	1.213565544352e-11	3
bin	1.560298557024e-11	2
bin	1.907031569696e-11	2
bin	2.253764582368e-11	1
bin	2.60049759504e-11	2
bin	2.947230607712e-11	1
bin	3.293963620384e-11	0
bin	3.640696633056e-11	0
bin	3.987429645728e-11	1
bin	4.3341626584e-11	1
bin	4.680895671072e-11	1
bin	5.027628683744e-11	7
bin	5.374361696416e-11	2
bin	5.721094709088e-11	1
bin	6.06782772176e-11	0
bin	6.414560734432e-11	1
bin	6.761293747104e-11	2
bin	7.108026759776e-11	0
bin	7.454759772448e-11	0
bin	7.80149278512e-11	365
statistic scenarioPRJP1.node[1].wlan[0].radio 	minSNIR:histogram
field count 11580
field mean 15760.942641723
field stddev 66601.799261605
field sum 182511715.79115
field sqrsum 54238681003709
field min 0.0049268775815234
field max 1225812.5905604
attr source  minSNIR
attr title  "Min SNIR, histogram"
bin	-INF	0
bin	-4439.6369918793	0
bin	-3846.9193532745	0
bin	-3254.2017146697	0
bin	-2661.4840760648	0
bin	-2068.76643746	0
bin	-1476.0487988551	0
bin	-883.3311602503	0
bin	-290.61352164547	6892
bin	302.10411695937	1701
bin	894.82175556421	380
bin	1487.539394169	211
bin	2080.2570327739	137
bin	2672.9746713787	121
bin	3265.6923099836	96
bin	3858.4099485884	93
bin	4451.1275871932	76
bin	5043.8452257981	72
bin	5636.5628644029	59
bin	6229.2805030078	40
bin	6821.9981416126	54
bin	7414.7157802174	51
bin	8007.4334188223	52
bin	8600.1510574271	45
bin	9192.8686960319	35
bin	9785.5863346368	35
bin	10378.303973242	29
bin	10971.021611846	32
bin	11563.739250451	22
bin	12156.456889056	30
bin	12749.174527661	23
bin	13341.892166266	1294
scalar scenarioPRJP1.node[1].lo0.lo 	droppedPkBitError:count 	0
attr interpolationmode  none
attr source  dropPkBitError
attr title  "packets dropped/bit error, count"
scalar scenarioPRJP1.node[1].lo0.lo 	droppedPkBitError:sum(packetBytes) 	0
attr interpolationmode  none
attr source  dropPkBitError
attr title  "packets dropped/bit error, sum(packetBytes)"
scalar scenarioPRJP1.node[1].lo0.lo 	rcvdPkFromHL:count 	0
attr interpolationmode  none
attr source  packetReceivedFromUpper
attr title  "packets received from higher layer, count"
scalar scenarioPRJP1.node[1].lo0.lo 	rcvdPkFromHL:sum(packetBytes) 	0
attr interpolationmode  none
attr source  packetReceivedFromUpper
attr title  "packets received from higher layer, sum(packetBytes)"
scalar scenarioPRJP1.node[1].lo0.lo 	passedUpPk:count 	0
attr interpolationmode  none
attr source  packetSentToUpper
attr title  "packets passed to higher layer, count"
scalar scenarioPRJP1.node[1].lo0.lo 	passedUpPk:sum(packetBytes) 	0
attr interpolationmode  none
attr source  packetSentToUpper
attr title  "packets passed to higher layer, sum(packetBytes)"
scalar scenarioPRJP1.node[6].app 	"Total sent" 	2610
scalar scenarioPRJP1.node[6].app 	"Total received" 	242
scalar scenarioPRJP1.node[6].app 	"Total deleted" 	118
scalar scenarioPRJP1.node[6].app 	dropPk:count 	118
attr interpolationmode  none
attr source  dropPk
attr title  "packets dropped, count"
scalar scenarioPRJP1.node[6].app 	dropPk:sum(packetBytes) 	60416
attr interpolationmode  none
attr source  dropPk
attr title  "packets dropped, sum(packetBytes)"
scalar scenarioPRJP1.node[6].app 	outOfOrderPk:count 	295
attr interpolationmode  none
attr source  outOfOrderPk
attr title  "packets received out of order, count"
scalar scenarioPRJP1.node[6].app 	outOfOrderPk:sum(packetBytes) 	151040
attr interpolationmode  none
attr source  outOfOrderPk
attr title  "packets received out of order, sum(packetBytes)"
scalar scenarioPRJP1.node[6].app 	rcvdPk:count 	242
attr interpolationmode  none
attr source  rcvdPk
attr title  "packets received, count"
scalar scenarioPRJP1.node[6].app 	rcvdPk:sum(packetBytes) 	123904
attr interpolationmode  none
attr source  rcvdPk
attr title  "packets received, sum(packetBytes)"
statistic scenarioPRJP1.node[6].app 	endToEndDelay:histogram
field count 242
field mean 3.2158456170221
field stddev 5.3325996756254
field sum 778.23463931935
field sqrsum 9355.9077052856
field min 0.000945011007
field max 19.517642097061
attr interpolationmode  none
attr source  messageAge(rcvdPk)
attr title  "delay, histogram"
attr unit  s
bin	-INF	0
bin	-9.521865885507	0
bin	-8.2521577659718	0
bin	-6.9824496464366	0
bin	-5.7127415269014	0
bin	-4.4430334073662	0
bin	-3.173325287831	0
bin	-1.9036171682958	0
bin	-0.6339090487606	148
bin	0.6357990707746	17
bin	1.9055071903098	8
bin	3.175215309845	6
bin	4.4449234293802	7
bin	5.7146315489154	5
bin	6.9843396684506	5
bin	8.2540477879858	4
bin	9.523755907521	14
bin	10.793464027056	1
bin	12.063172146591	7
bin	13.332880266127	6
bin	14.602588385662	2
bin	15.872296505197	4
bin	17.142004624732	3
bin	18.411712744267	5
bin	19.681420863803	0
bin	20.951128983338	0
bin	22.220837102873	0
bin	23.490545222408	0
bin	24.760253341943	0
bin	26.029961461479	0
bin	27.299669581014	0
bin	28.569377700549	0
scalar scenarioPRJP1.node[6].app 	sentPk:count 	2610
attr interpolationmode  none
attr source  sentPk
attr title  "packets sent, count"
scalar scenarioPRJP1.node[6].app 	sentPk:sum(packetBytes) 	1336320
attr interpolationmode  none
attr source  sentPk
attr title  "packets sent, sum(packetBytes)"
scalar scenarioPRJP1.node[6].udp 	droppedPkBadChecksum:count 	0
attr interpolationmode  none
attr title  "packets dropped (checksum error), count"
scalar scenarioPRJP1.node[6].udp 	droppedPkWrongPort:count 	0
attr interpolationmode  none
attr title  "packets dropped (wrong port), count"
scalar scenarioPRJP1.node[6].udp 	passedUpPk:count 	655
attr interpolationmode  none
attr title  "packets passed up, count"
scalar scenarioPRJP1.node[6].udp 	rcvdPk:count 	655
attr interpolationmode  none
attr source  rcvdPk
attr title  "packets received, count"
scalar scenarioPRJP1.node[6].udp 	rcvdPk:sum(packetBytes) 	340600
attr interpolationmode  none
attr source  rcvdPk
attr title  "packets received, sum(packetBytes)"
scalar scenarioPRJP1.node[6].udp 	sentPk:count 	2610
attr interpolationmode  none
attr source  sentPk
attr title  "packets sent, count"
scalar scenarioPRJP1.node[6].udp 	sentPk:sum(packetBytes) 	1357200
attr interpolationmode  none
attr source  sentPk
attr title  "packets sent, sum(packetBytes)"
scalar scenarioPRJP1.node[6].networkLayer.arp 	failedARPResolution:count 	59
attr title  "ARP failed resolutions, count"
scalar scenarioPRJP1.node[6].networkLayer.arp 	completedARPResolution:count 	263
attr title  "ARP completed resolutions, count"
scalar scenarioPRJP1.node[6].networkLayer.arp 	initiatedARPResolution:count 	75
attr title  "ARP initiated resolutions, count"
scalar scenarioPRJP1.node[6].networkLayer.arp 	sentReply:count 	8
attr title  "ARP replies sent, count"
scalar scenarioPRJP1.node[6].networkLayer.arp 	sentReq:count 	205
attr title  "ARP request sent, count"
scalar scenarioPRJP1.node[6].mobility 	startTime 	2.5
scalar scenarioPRJP1.node[6].mobility 	totalTime 	947.5
scalar scenarioPRJP1.node[6].mobility 	stopTime 	950
scalar scenarioPRJP1.node[6].mobility 	minSpeed 	2.475516124906e-13
scalar scenarioPRJP1.node[6].mobility 	maxSpeed 	20.628423494517
scalar scenarioPRJP1.node[6].mobility 	totalDistance 	10068.227044669
scalar scenarioPRJP1.node[6].mobility 	totalCO2Emission 	2862.6466045639
scalar scenarioPRJP1.node[6].wlan[0].mgmt 	dataQueueLen:max 	88
attr interpolationmode  sample-hold
attr title  "data queue length, max"
scalar scenarioPRJP1.node[6].wlan[0].mgmt 	dataQueueLen:timeavg 	0.045462844523618
attr interpolationmode  sample-hold
attr title  "data queue length, timeavg"
scalar scenarioPRJP1.node[6].wlan[0].mgmt 	dropPkByQueue:count 	0
attr interpolationmode  none
attr source  dropPkByQueue
attr title  "packets dropped by queue, count"
scalar scenarioPRJP1.node[6].wlan[0].mgmt 	dropPkByQueue:sum(packetBytes) 	0
attr interpolationmode  none
attr source  dropPkByQueue
attr title  "packets dropped by queue, sum(packetBytes)"
scalar scenarioPRJP1.node[6].wlan[0].mac 	"number of received packets" 	1740
scalar scenarioPRJP1.node[6].wlan[0].mac 	"number of collisions" 	331
scalar scenarioPRJP1.node[6].wlan[0].mac 	"number of internal collisions" 	0
scalar scenarioPRJP1.node[6].wlan[0].mac 	"number of retry for AC 0" 	5248
scalar scenarioPRJP1.node[6].wlan[0].mac 	"number of retry for AC 1" 	0
scalar scenarioPRJP1.node[6].wlan[0].mac 	"number of retry for AC 2" 	0
scalar scenarioPRJP1.node[6].wlan[0].mac 	"number of retry for AC 3" 	0
scalar scenarioPRJP1.node[6].wlan[0].mac 	"sent and received bits" 	5029984
scalar scenarioPRJP1.node[6].wlan[0].mac 	"sent packet within AC 0" 	675
scalar scenarioPRJP1.node[6].wlan[0].mac 	"sent packet within AC 1" 	0
scalar scenarioPRJP1.node[6].wlan[0].mac 	"sent packet within AC 2" 	0
scalar scenarioPRJP1.node[6].wlan[0].mac 	"sent packet within AC 3" 	0
scalar scenarioPRJP1.node[6].wlan[0].mac 	"sent in TXOP " 	0
scalar scenarioPRJP1.node[6].wlan[0].mac 	"sentWithoutRetry AC 0" 	626
scalar scenarioPRJP1.node[6].wlan[0].mac 	"sentWithoutRetry AC 1" 	0
scalar scenarioPRJP1.node[6].wlan[0].mac 	"sentWithoutRetry AC 2" 	0
scalar scenarioPRJP1.node[6].wlan[0].mac 	"sentWithoutRetry AC 3" 	0
scalar scenarioPRJP1.node[6].wlan[0].mac 	"numGivenUp AC 0" 	865
scalar scenarioPRJP1.node[6].wlan[0].mac 	"numGivenUp AC 1" 	0
scalar scenarioPRJP1.node[6].wlan[0].mac 	"numGivenUp AC 2" 	0
scalar scenarioPRJP1.node[6].wlan[0].mac 	"numGivenUp AC 3" 	0
scalar scenarioPRJP1.node[6].wlan[0].mac 	"numDropped AC 0" 	179
scalar scenarioPRJP1.node[6].wlan[0].mac 	"numDropped AC 1" 	0
scalar scenarioPRJP1.node[6].wlan[0].mac 	"numDropped AC 2" 	0
scalar scenarioPRJP1.node[6].wlan[0].mac 	"numDropped AC 3" 	0
scalar scenarioPRJP1.node[6].wlan[0].mac 	rcvdPkFromLL:count 	13516
attr interpolationmode  none
attr source  packetReceivedFromLower
attr title  "packets received from lower layer, count"
scalar scenarioPRJP1.node[6].wlan[0].mac 	rcvdPkFromLL:sum(packetBytes) 	4315216
attr interpolationmode  none
attr source  packetReceivedFromLower
attr title  "packets received from lower layer, sum(packetBytes)"
scalar scenarioPRJP1.node[6].wlan[0].mac 	sentDownPk:count 	11453
attr interpolationmode  none
attr source  packetSentToLower
attr title  "packets sent to lower layer, count"
scalar scenarioPRJP1.node[6].wlan[0].mac 	sentDownPk:sum(packetBytes) 	4021188
attr interpolationmode  none
attr source  packetSentToLower
attr title  "packets sent to lower layer, sum(packetBytes)"
scalar scenarioPRJP1.node[6].wlan[0].mac 	rcvdPkFromHL:count 	4644
attr interpolationmode  none
attr source  packetReceivedFromUpper
attr title  "packets received from higher layer, count"
scalar scenarioPRJP1.node[6].wlan[0].mac 	rcvdPkFromHL:sum(packetBytes) 	1193176
attr interpolationmode  none
attr source  packetReceivedFromUpper
attr title  "packets received from higher layer, sum(packetBytes)"
scalar scenarioPRJP1.node[6].wlan[0].mac 	passedUpPk:count 	4234
attr interpolationmode  none
attr source  packetSentToUpper
attr title  "packets passed to higher layer, count"
scalar scenarioPRJP1.node[6].wlan[0].mac 	passedUpPk:sum(packetBytes) 	857584
attr interpolationmode  none
attr source  packetSentToUpper
attr title  "packets passed to higher layer, sum(packetBytes)"
statistic scenarioPRJP1.node[6].wlan[0].radio 	radioChannel:histogram
field count 1
field mean 3
field stddev -nan
field sum 3
field sqrsum 9
field min 3
field max 3
attr interpolationmode  sample-hold
attr source  radioChannelChanged
attr title  "Radio channel, histogram"
bin	-INF	0
bin	2	0
bin	3	1
bin	4	0
scalar scenarioPRJP1.node[6].wlan[0].radio 	transmissionState:count 	45812
attr interpolationmode  sample-hold
attr source  transmissionStateChanged
attr title  "Radio transmission state, count"
scalar scenarioPRJP1.node[6].wlan[0].radio 	receptionState:count 	50066
attr interpolationmode  sample-hold
attr source  receptionStateChanged
attr title  "Radio reception state, count"
scalar scenarioPRJP1.node[6].wlan[0].radio 	radioMode:count 	22908
attr interpolationmode  sample-hold
attr source  radioModeChanged
attr title  "Radio mode, count"
statistic scenarioPRJP1.node[6].wlan[0].radio 	symbolErrorRate:histogram
field count 0
field mean -nan
field stddev -nan
field sum 0
field sqrsum 0
field min -nan
field max -nan
attr source  symbolErrorRate
attr title  "Symbol error rate, histogram"
bin	-INF	0
bin	-0.5	0
bin	-0.46666666666667	0
bin	-0.43333333333333	0
bin	-0.4	0
bin	-0.36666666666667	0
bin	-0.33333333333333	0
bin	-0.3	0
bin	-0.26666666666667	0
bin	-0.23333333333333	0
bin	-0.2	0
bin	-0.16666666666667	0
bin	-0.13333333333333	0
bin	-0.1	0
bin	-0.066666666666667	0
bin	-0.033333333333333	0
bin	0	0
bin	0.033333333333333	0
bin	0.066666666666667	0
bin	0.1	0
bin	0.13333333333333	0
bin	0.16666666666667	0
bin	0.2	0
bin	0.23333333333333	0
bin	0.26666666666667	0
bin	0.3	0
bin	0.33333333333333	0
bin	0.36666666666667	0
bin	0.4	0
bin	0.43333333333333	0
bin	0.46666666666667	0
bin	0.5	0
statistic scenarioPRJP1.node[6].wlan[0].radio 	bitErrorRate:histogram
field count 0
field mean -nan
field stddev -nan
field sum 0
field sqrsum 0
field min -nan
field max -nan
attr source  bitErrorRate
attr title  "Bit error rate, histogram"
bin	-INF	0
bin	-0.5	0
bin	-0.46666666666667	0
bin	-0.43333333333333	0
bin	-0.4	0
bin	-0.36666666666667	0
bin	-0.33333333333333	0
bin	-0.3	0
bin	-0.26666666666667	0
bin	-0.23333333333333	0
bin	-0.2	0
bin	-0.16666666666667	0
bin	-0.13333333333333	0
bin	-0.1	0
bin	-0.066666666666667	0
bin	-0.033333333333333	0
bin	0	0
bin	0.033333333333333	0
bin	0.066666666666667	0
bin	0.1	0
bin	0.13333333333333	0
bin	0.16666666666667	0
bin	0.2	0
bin	0.23333333333333	0
bin	0.26666666666667	0
bin	0.3	0
bin	0.33333333333333	0
bin	0.36666666666667	0
bin	0.4	0
bin	0.43333333333333	0
bin	0.46666666666667	0
bin	0.5	0
statistic scenarioPRJP1.node[6].wlan[0].radio 	packetErrorRate:histogram
field count 13516
field mean 0.024224073804529
field stddev 0.15014866787637
field sum 327.41258154201
field sqrsum 312.62183915492
field min 0
field max 1
attr source  packetErrorRate
attr title  "Packet error rate, histogram"
bin	-INF	0
bin	-0.5	0
bin	-0.46666666666667	0
bin	-0.43333333333333	0
bin	-0.4	0
bin	-0.36666666666667	0
bin	-0.33333333333333	0
bin	-0.3	0
bin	-0.26666666666667	0
bin	-0.23333333333333	0
bin	-0.2	0
bin	-0.16666666666667	0
bin	-0.13333333333333	0
bin	-0.1	0
bin	-0.066666666666667	0
bin	-0.033333333333333	0
bin	0	13132
bin	0.033333333333333	15
bin	0.066666666666667	5
bin	0.1	7
bin	0.13333333333333	4
bin	0.16666666666667	4
bin	0.2	1
bin	0.23333333333333	5
bin	0.26666666666667	3
bin	0.3	5
bin	0.33333333333333	3
bin	0.36666666666667	3
bin	0.4	3
bin	0.43333333333333	1
bin	0.46666666666667	1
bin	0.5	324
statistic scenarioPRJP1.node[6].wlan[0].radio 	minSNIR:histogram
field count 13516
field mean 17397.094829391
field stddev 62672.952188435
field sum 235139133.71405
field sqrsum 57176291927552
field min 0.00037702582551529
field max 1562525.5915786
attr source  minSNIR
attr title  "Min SNIR, histogram"
bin	-INF	0
bin	-7032.0541473018	0
bin	-6092.3205787739	0
bin	-5152.5870102461	0
bin	-4212.8534417182	0
bin	-3273.1198731903	0
bin	-2333.3863046625	0
bin	-1393.6527361346	0
bin	-453.91916760674	7576
bin	485.81440092113	1637
bin	1425.547969449	557
bin	2365.2815379769	314
bin	3305.0151065047	221
bin	4244.7486750326	192
bin	5184.4822435605	128
bin	6124.2158120883	111
bin	7063.9493806162	98
bin	8003.682949144	80
bin	8943.4165176719	61
bin	9883.1500861998	76
bin	10822.883654728	61
bin	11762.617223256	49
bin	12702.350791783	54
bin	13642.084360311	48
bin	14581.817928839	42
bin	15521.551497367	42
bin	16461.285065895	45
bin	17401.018634423	31
bin	18340.752202951	36
bin	19280.485771478	39
bin	20220.219340006	36
bin	21159.952908534	1982
scalar scenarioPRJP1.node[6].lo0.lo 	droppedPkBitError:count 	0
attr interpolationmode  none
attr source  dropPkBitError
attr title  "packets dropped/bit error, count"
scalar scenarioPRJP1.node[6].lo0.lo 	droppedPkBitError:sum(packetBytes) 	0
attr interpolationmode  none
attr source  dropPkBitError
attr title  "packets dropped/bit error, sum(packetBytes)"
scalar scenarioPRJP1.node[6].lo0.lo 	rcvdPkFromHL:count 	0
attr interpolationmode  none
attr source  packetReceivedFromUpper
attr title  "packets received from higher layer, count"
scalar scenarioPRJP1.node[6].lo0.lo 	rcvdPkFromHL:sum(packetBytes) 	0
attr interpolationmode  none
attr source  packetReceivedFromUpper
attr title  "packets received from higher layer, sum(packetBytes)"
scalar scenarioPRJP1.node[6].lo0.lo 	passedUpPk:count 	0
attr interpolationmode  none
attr source  packetSentToUpper
attr title  "packets passed to higher layer, count"
scalar scenarioPRJP1.node[6].lo0.lo 	passedUpPk:sum(packetBytes) 	0
attr interpolationmode  none
attr source  packetSentToUpper
attr title  "packets passed to higher layer, sum(packetBytes)"
scalar scenarioPRJP1.node[2].app 	"Total sent" 	2607
scalar scenarioPRJP1.node[2].app 	"Total received" 	191
scalar scenarioPRJP1.node[2].app 	"Total deleted" 	225
scalar scenarioPRJP1.node[2].app 	dropPk:count 	225
attr interpolationmode  none
attr source  dropPk
attr title  "packets dropped, count"
scalar scenarioPRJP1.node[2].app 	dropPk:sum(packetBytes) 	115200
attr interpolationmode  none
attr source  dropPk
attr title  "packets dropped, sum(packetBytes)"
scalar scenarioPRJP1.node[2].app 	outOfOrderPk:count 	484
attr interpolationmode  none
attr source  outOfOrderPk
attr title  "packets received out of order, count"
scalar scenarioPRJP1.node[2].app 	outOfOrderPk:sum(packetBytes) 	247808
attr interpolationmode  none
attr source  outOfOrderPk
attr title  "packets received out of order, sum(packetBytes)"
scalar scenarioPRJP1.node[2].app 	rcvdPk:count 	191
attr interpolationmode  none
attr source  rcvdPk
attr title  "packets received, count"
scalar scenarioPRJP1.node[2].app 	rcvdPk:sum(packetBytes) 	97792
attr interpolationmode  none
attr source  rcvdPk
attr title  "packets received, sum(packetBytes)"
statistic scenarioPRJP1.node[2].app 	endToEndDelay:histogram
field count 191
field mean 2.8652651035506
field stddev 5.3626918227899
field sum 547.26563477816
field sqrsum 7032.1692070837
field min 0.000945061376
field max 19.465045703817
attr interpolationmode  none
attr source  messageAge(rcvdPk)
attr title  "delay, histogram"
attr unit  s
bin	-INF	0
bin	-9.7311052598445	0
bin	-8.4334985503484	0
bin	-7.1358918408524	0
bin	-5.8382851313563	0
bin	-4.5406784218602	0
bin	-3.2430717123642	0
bin	-1.9454650028681	0
bin	-0.64785829337203	132
bin	0.64974841612403	6
bin	1.9473551256201	8
bin	3.2449618351162	5
bin	4.5425685446122	2
bin	5.8401752541083	4
bin	7.1377819636044	3
bin	8.4353886731004	3
bin	9.7329953825965	5
bin	11.030602092093	3
bin	12.328208801589	4
bin	13.625815511085	2
bin	14.923422220581	5
bin	16.221028930077	2
bin	17.518635639573	4
bin	18.816242349069	3
bin	20.113849058565	0
bin	21.411455768061	0
bin	22.709062477557	0
bin	24.006669187053	0
bin	25.304275896549	0
bin	26.601882606045	0
bin	27.899489315541	0
bin	29.197096025038	0
scalar scenarioPRJP1.node[2].app 	sentPk:count 	2607
attr interpolationmode  none
attr source  sentPk
attr title  "packets sent, count"
scalar scenarioPRJP1.node[2].app 	sentPk:sum(packetBytes) 	1334784
attr interpolationmode  none
attr source  sentPk
attr title  "packets sent, sum(packetBytes)"
scalar scenarioPRJP1.node[2].udp 	droppedPkBadChecksum:count 	0
attr interpolationmode  none
attr title  "packets dropped (checksum error), count"
scalar scenarioPRJP1.node[2].udp 	droppedPkWrongPort:count 	0
attr interpolationmode  none
attr title  "packets dropped (wrong port), count"
scalar scenarioPRJP1.node[2].udp 	passedUpPk:count 	900
attr interpolationmode  none
attr title  "packets passed up, count"
scalar scenarioPRJP1.node[2].udp 	rcvdPk:count 	900
attr interpolationmode  none
attr source  rcvdPk
attr title  "packets received, count"
scalar scenarioPRJP1.node[2].udp 	rcvdPk:sum(packetBytes) 	468000
attr interpolationmode  none
attr source  rcvdPk
attr title  "packets received, sum(packetBytes)"
scalar scenarioPRJP1.node[2].udp 	sentPk:count 	2607
attr interpolationmode  none
attr source  sentPk
attr title  "packets sent, count"
scalar scenarioPRJP1.node[2].udp 	sentPk:sum(packetBytes) 	1355640
attr interpolationmode  none
attr source  sentPk
attr title  "packets sent, sum(packetBytes)"
scalar scenarioPRJP1.node[2].networkLayer.arp 	failedARPResolution:count 	42
attr title  "ARP failed resolutions, count"
scalar scenarioPRJP1.node[2].networkLayer.arp 	completedARPResolution:count 	181
attr title  "ARP completed resolutions, count"
scalar scenarioPRJP1.node[2].networkLayer.arp 	initiatedARPResolution:count 	54
attr title  "ARP initiated resolutions, count"
scalar scenarioPRJP1.node[2].networkLayer.arp 	sentReply:count 	17
attr title  "ARP replies sent, count"
scalar scenarioPRJP1.node[2].networkLayer.arp 	sentReq:count 	145
attr title  "ARP request sent, count"
scalar scenarioPRJP1.node[2].mobility 	startTime 	0.1
scalar scenarioPRJP1.node[2].mobility 	totalTime 	949.9
scalar scenarioPRJP1.node[2].mobility 	stopTime 	950
scalar scenarioPRJP1.node[2].mobility 	minSpeed 	2.4754514954179e-13
scalar scenarioPRJP1.node[2].mobility 	maxSpeed 	18.634010177379
scalar scenarioPRJP1.node[2].mobility 	totalDistance 	9295.2505834047
scalar scenarioPRJP1.node[2].mobility 	totalCO2Emission 	2617.0883659362
scalar scenarioPRJP1.node[2].wlan[0].mgmt 	dataQueueLen:max 	100
attr interpolationmode  sample-hold
attr title  "data queue length, max"
scalar scenarioPRJP1.node[2].wlan[0].mgmt 	dataQueueLen:timeavg 	0.034614659464535
attr interpolationmode  sample-hold
attr title  "data queue length, timeavg"
scalar scenarioPRJP1.node[2].wlan[0].mgmt 	dropPkByQueue:count 	2
attr interpolationmode  none
attr source  dropPkByQueue
attr title  "packets dropped by queue, count"
scalar scenarioPRJP1.node[2].wlan[0].mgmt 	dropPkByQueue:sum(packetBytes) 	1152
attr interpolationmode  none
attr source  dropPkByQueue
attr title  "packets dropped by queue, sum(packetBytes)"
scalar scenarioPRJP1.node[2].wlan[0].mac 	"number of received packets" 	2335
scalar scenarioPRJP1.node[2].wlan[0].mac 	"number of collisions" 	626
scalar scenarioPRJP1.node[2].wlan[0].mac 	"number of internal collisions" 	0
scalar scenarioPRJP1.node[2].wlan[0].mac 	"number of retry for AC 0" 	3959
scalar scenarioPRJP1.node[2].wlan[0].mac 	"number of retry for AC 1" 	0
scalar scenarioPRJP1.node[2].wlan[0].mac 	"number of retry for AC 2" 	0
scalar scenarioPRJP1.node[2].wlan[0].mac 	"number of retry for AC 3" 	0
scalar scenarioPRJP1.node[2].wlan[0].mac 	"sent and received bits" 	3581696
scalar scenarioPRJP1.node[2].wlan[0].mac 	"sent packet within AC 0" 	456
scalar scenarioPRJP1.node[2].wlan[0].mac 	"sent packet within AC 1" 	0
scalar scenarioPRJP1.node[2].wlan[0].mac 	"sent packet within AC 2" 	0
scalar scenarioPRJP1.node[2].wlan[0].mac 	"sent packet within AC 3" 	0
scalar scenarioPRJP1.node[2].wlan[0].mac 	"sent in TXOP " 	0
scalar scenarioPRJP1.node[2].wlan[0].mac 	"sentWithoutRetry AC 0" 	418
scalar scenarioPRJP1.node[2].wlan[0].mac 	"sentWithoutRetry AC 1" 	0
scalar scenarioPRJP1.node[2].wlan[0].mac 	"sentWithoutRetry AC 2" 	0
scalar scenarioPRJP1.node[2].wlan[0].mac 	"sentWithoutRetry AC 3" 	0
scalar scenarioPRJP1.node[2].wlan[0].mac 	"numGivenUp AC 0" 	653
scalar scenarioPRJP1.node[2].wlan[0].mac 	"numGivenUp AC 1" 	0
scalar scenarioPRJP1.node[2].wlan[0].mac 	"numGivenUp AC 2" 	0
scalar scenarioPRJP1.node[2].wlan[0].mac 	"numGivenUp AC 3" 	0
scalar scenarioPRJP1.node[2].wlan[0].mac 	"numDropped AC 0" 	191
scalar scenarioPRJP1.node[2].wlan[0].mac 	"numDropped AC 1" 	0
scalar scenarioPRJP1.node[2].wlan[0].mac 	"numDropped AC 2" 	0
scalar scenarioPRJP1.node[2].wlan[0].mac 	"numDropped AC 3" 	0
scalar scenarioPRJP1.node[2].wlan[0].mac 	rcvdPkFromLL:count 	14050
attr interpolationmode  none
attr source  packetReceivedFromLower
attr title  "packets received from lower layer, count"
scalar scenarioPRJP1.node[2].wlan[0].mac 	rcvdPkFromLL:sum(packetBytes) 	4992594
attr interpolationmode  none
attr source  packetReceivedFromLower
attr title  "packets received from lower layer, sum(packetBytes)"
scalar scenarioPRJP1.node[2].wlan[0].mac 	sentDownPk:count 	9676
attr interpolationmode  none
attr source  packetSentToLower
attr title  "packets sent to lower layer, count"
scalar scenarioPRJP1.node[2].wlan[0].mac 	sentDownPk:sum(packetBytes) 	2882046
attr interpolationmode  none
attr source  packetSentToLower
attr title  "packets sent to lower layer, sum(packetBytes)"
scalar scenarioPRJP1.node[2].wlan[0].mac 	rcvdPkFromHL:count 	3573
attr interpolationmode  none
attr source  packetReceivedFromUpper
attr title  "packets received from higher layer, count"
scalar scenarioPRJP1.node[2].wlan[0].mac 	rcvdPkFromHL:sum(packetBytes) 	880188
attr interpolationmode  none
attr source  packetReceivedFromUpper
attr title  "packets received from higher layer, sum(packetBytes)"
scalar scenarioPRJP1.node[2].wlan[0].mac 	passedUpPk:count 	3890
attr interpolationmode  none
attr source  packetSentToUpper
attr title  "packets passed to higher layer, count"
scalar scenarioPRJP1.node[2].wlan[0].mac 	passedUpPk:sum(packetBytes) 	915860
attr interpolationmode  none
attr source  packetSentToUpper
attr title  "packets passed to higher layer, sum(packetBytes)"
statistic scenarioPRJP1.node[2].wlan[0].radio 	radioChannel:histogram
field count 1
field mean 3
field stddev -nan
field sum 3
field sqrsum 9
field min 3
field max 3
attr interpolationmode  sample-hold
attr source  radioChannelChanged
attr title  "Radio channel, histogram"
bin	-INF	0
bin	2	0
bin	3	1
bin	4	0
scalar scenarioPRJP1.node[2].wlan[0].radio 	transmissionState:count 	38704
attr interpolationmode  sample-hold
attr source  transmissionStateChanged
attr title  "Radio transmission state, count"
scalar scenarioPRJP1.node[2].wlan[0].radio 	receptionState:count 	47606
attr interpolationmode  sample-hold
attr source  receptionStateChanged
attr title  "Radio reception state, count"
scalar scenarioPRJP1.node[2].wlan[0].radio 	radioMode:count 	19354
attr interpolationmode  sample-hold
attr source  radioModeChanged
attr title  "Radio mode, count"
statistic scenarioPRJP1.node[2].wlan[0].radio 	symbolErrorRate:histogram
field count 0
field mean -nan
field stddev -nan
field sum 0
field sqrsum 0
field min -nan
field max -nan
attr source  symbolErrorRate
attr title  "Symbol error rate, histogram"
bin	-INF	0
bin	-0.5	0
bin	-0.46666666666667	0
bin	-0.43333333333333	0
bin	-0.4	0
bin	-0.36666666666667	0
bin	-0.33333333333333	0
bin	-0.3	0
bin	-0.26666666666667	0
bin	-0.23333333333333	0
bin	-0.2	0
bin	-0.16666666666667	0
bin	-0.13333333333333	0
bin	-0.1	0
bin	-0.066666666666667	0
bin	-0.033333333333333	0
bin	0	0
bin	0.033333333333333	0
bin	0.066666666666667	0
bin	0.1	0
bin	0.13333333333333	0
bin	0.16666666666667	0
bin	0.2	0
bin	0.23333333333333	0
bin	0.26666666666667	0
bin	0.3	0
bin	0.33333333333333	0
bin	0.36666666666667	0
bin	0.4	0
bin	0.43333333333333	0
bin	0.46666666666667	0
bin	0.5	0
statistic scenarioPRJP1.node[2].wlan[0].radio 	bitErrorRate:histogram
field count 0
field mean -nan
field stddev -nan
field sum 0
field sqrsum 0
field min -nan
field max -nan
attr source  bitErrorRate
attr title  "Bit error rate, histogram"
bin	-INF	0
bin	-0.5	0
bin	-0.46666666666667	0
bin	-0.43333333333333	0
bin	-0.4	0
bin	-0.36666666666667	0
bin	-0.33333333333333	0
bin	-0.3	0
bin	-0.26666666666667	0
bin	-0.23333333333333	0
bin	-0.2	0
bin	-0.16666666666667	0
bin	-0.13333333333333	0
bin	-0.1	0
bin	-0.066666666666667	0
bin	-0.033333333333333	0
bin	0	0
bin	0.033333333333333	0
bin	0.066666666666667	0
bin	0.1	0
bin	0.13333333333333	0
bin	0.16666666666667	0
bin	0.2	0
bin	0.23333333333333	0
bin	0.26666666666667	0
bin	0.3	0
bin	0.33333333333333	0
bin	0.36666666666667	0
bin	0.4	0
bin	0.43333333333333	0
bin	0.46666666666667	0
bin	0.5	0
statistic scenarioPRJP1.node[2].wlan[0].radio 	packetErrorRate:histogram
field count 14050
field mean 0.043398454551222
field stddev 0.20024276140859
field sum 609.74828644467
field sqrsum 589.78718325979
field min 0
field max 1
attr source  packetErrorRate
attr title  "Packet error rate, histogram"
bin	-INF	0
bin	-0.5	0
bin	-0.46666666666667	0
bin	-0.43333333333333	0
bin	-0.4	0
bin	-0.36666666666667	0
bin	-0.33333333333333	0
bin	-0.3	0
bin	-0.26666666666667	0
bin	-0.23333333333333	0
bin	-0.2	0
bin	-0.16666666666667	0
bin	-0.13333333333333	0
bin	-0.1	0
bin	-0.066666666666667	0
bin	-0.033333333333333	0
bin	0	13356
bin	0.033333333333333	26
bin	0.066666666666667	10
bin	0.1	12
bin	0.13333333333333	5
bin	0.16666666666667	1
bin	0.2	6
bin	0.23333333333333	7
bin	0.26666666666667	5
bin	0.3	2
bin	0.33333333333333	3
bin	0.36666666666667	3
bin	0.4	3
bin	0.43333333333333	2
bin	0.46666666666667	4
bin	0.5	605
statistic scenarioPRJP1.node[2].wlan[0].radio 	minSNIR:histogram
field count 14050
field mean 6415.9450877819
field stddev 36280.275123427
field sum 90144028.483336
field sqrsum 19070472878971
field min 0.0015071887632596
field max 1202412.442162
attr source  minSNIR
attr title  "Min SNIR, histogram"
bin	-INF	0
bin	-3944.0090863468	0
bin	-3416.664164608	0
bin	-2889.3192428693	0
bin	-2361.9743211305	0
bin	-1834.6293993918	0
bin	-1307.284477653	0
bin	-779.93955591423	0
bin	-252.59463417547	7268
bin	274.7502875633	2856
bin	802.09520930206	666
bin	1329.4401310408	309
bin	1856.7850527796	229
bin	2384.1299745184	157
bin	2911.4748962571	148
bin	3438.8198179959	118
bin	3966.1647397346	113
bin	4493.5096614734	88
bin	5020.8545832122	101
bin	5548.1995049509	99
bin	6075.5444266897	104
bin	6602.8893484285	78
bin	7130.2342701672	79
bin	7657.579191906	59
bin	8184.9241136448	63
bin	8712.2690353835	69
bin	9239.6139571223	50
bin	9766.958878861	54
bin	10294.3038006	68
bin	10821.648722339	44
bin	11348.993644077	58
bin	11876.338565816	1172
scalar scenarioPRJP1.node[2].lo0.lo 	droppedPkBitError:count 	0
attr interpolationmode  none
attr source  dropPkBitError
attr title  "packets dropped/bit error, count"
scalar scenarioPRJP1.node[2].lo0.lo 	droppedPkBitError:sum(packetBytes) 	0
attr interpolationmode  none
attr source  dropPkBitError
attr title  "packets dropped/bit error, sum(packetBytes)"
scalar scenarioPRJP1.node[2].lo0.lo 	rcvdPkFromHL:count 	0
attr interpolationmode  none
attr source  packetReceivedFromUpper
attr title  "packets received from higher layer, count"
scalar scenarioPRJP1.node[2].lo0.lo 	rcvdPkFromHL:sum(packetBytes) 	0
attr interpolationmode  none
attr source  packetReceivedFromUpper
attr title  "packets received from higher layer, sum(packetBytes)"
scalar scenarioPRJP1.node[2].lo0.lo 	passedUpPk:count 	0
attr interpolationmode  none
attr source  packetSentToUpper
attr title  "packets passed to higher layer, count"
scalar scenarioPRJP1.node[2].lo0.lo 	passedUpPk:sum(packetBytes) 	0
attr interpolationmode  none
attr source  packetSentToUpper
attr title  "packets passed to higher layer, sum(packetBytes)"
scalar scenarioPRJP1.node[7].app 	"Total sent" 	2618
scalar scenarioPRJP1.node[7].app 	"Total received" 	278
scalar scenarioPRJP1.node[7].app 	"Total deleted" 	99
scalar scenarioPRJP1.node[7].app 	dropPk:count 	99
attr interpolationmode  none
attr source  dropPk
attr title  "packets dropped, count"
scalar scenarioPRJP1.node[7].app 	dropPk:sum(packetBytes) 	50688
attr interpolationmode  none
attr source  dropPk
attr title  "packets dropped, sum(packetBytes)"
scalar scenarioPRJP1.node[7].app 	outOfOrderPk:count 	367
attr interpolationmode  none
attr source  outOfOrderPk
attr title  "packets received out of order, count"
scalar scenarioPRJP1.node[7].app 	outOfOrderPk:sum(packetBytes) 	187904
attr interpolationmode  none
attr source  outOfOrderPk
attr title  "packets received out of order, sum(packetBytes)"
scalar scenarioPRJP1.node[7].app 	rcvdPk:count 	278
attr interpolationmode  none
attr source  rcvdPk
attr title  "packets received, count"
scalar scenarioPRJP1.node[7].app 	rcvdPk:sum(packetBytes) 	142336
attr interpolationmode  none
attr source  rcvdPk
attr title  "packets received, sum(packetBytes)"
statistic scenarioPRJP1.node[7].app 	endToEndDelay:histogram
field count 278
field mean 1.4661477808801
field stddev 3.626781438365
field sum 407.58908308467
field sqrsum 4241.1174073379
field min 0.00094501396
field max 19.735100336902
attr interpolationmode  none
attr source  messageAge(rcvdPk)
attr title  "delay, histogram"
attr unit  s
bin	-INF	0
bin	-9.866132567255	0
bin	-8.5505222159591	0
bin	-7.2349118646633	0
bin	-5.9193015133674	0
bin	-4.6036911620715	0
bin	-3.2880808107757	0
bin	-1.9724704594798	0
bin	-0.65686010818393	211
bin	0.65875024311193	17
bin	1.9743605944078	12
bin	3.2899709457037	9
bin	4.6055812969995	3
bin	5.9211916482954	7
bin	7.2368019995913	2
bin	8.5524123508871	0
bin	9.868022702183	3
bin	11.183633053479	4
bin	12.499243404775	2
bin	13.814853756071	4
bin	15.130464107366	0
bin	16.446074458662	1
bin	17.761684809958	2
bin	19.077295161254	1
bin	20.39290551255	0
bin	21.708515863846	0
bin	23.024126215142	0
bin	24.339736566438	0
bin	25.655346917733	0
bin	26.970957269029	0
bin	28.286567620325	0
bin	29.602177971621	0
scalar scenarioPRJP1.node[7].app 	sentPk:count 	2618
attr interpolationmode  none
attr source  sentPk
attr title  "packets sent, count"
scalar scenarioPRJP1.node[7].app 	sentPk:sum(packetBytes) 	1340416
attr interpolationmode  none
attr source  sentPk
attr title  "packets sent, sum(packetBytes)"
scalar scenarioPRJP1.node[7].udp 	droppedPkBadChecksum:count 	0
attr interpolationmode  none
attr title  "packets dropped (checksum error), count"
scalar scenarioPRJP1.node[7].udp 	droppedPkWrongPort:count 	0
attr interpolationmode  none
attr title  "packets dropped (wrong port), count"
scalar scenarioPRJP1.node[7].udp 	passedUpPk:count 	744
attr interpolationmode  none
attr title  "packets passed up, count"
scalar scenarioPRJP1.node[7].udp 	rcvdPk:count 	744
attr interpolationmode  none
attr source  rcvdPk
attr title  "packets received, count"
scalar scenarioPRJP1.node[7].udp 	rcvdPk:sum(packetBytes) 	386880
attr interpolationmode  none
attr source  rcvdPk
attr title  "packets received, sum(packetBytes)"
scalar scenarioPRJP1.node[7].udp 	sentPk:count 	2618
attr interpolationmode  none
attr source  sentPk
attr title  "packets sent, count"
scalar scenarioPRJP1.node[7].udp 	sentPk:sum(packetBytes) 	1361360
attr interpolationmode  none
attr source  sentPk
attr title  "packets sent, sum(packetBytes)"
scalar scenarioPRJP1.node[7].networkLayer.arp 	failedARPResolution:count 	100
attr title  "ARP failed resolutions, count"
scalar scenarioPRJP1.node[7].networkLayer.arp 	completedARPResolution:count 	316
attr title  "ARP completed resolutions, count"
scalar scenarioPRJP1.node[7].networkLayer.arp 	initiatedARPResolution:count 	116
attr title  "ARP initiated resolutions, count"
scalar scenarioPRJP1.node[7].networkLayer.arp 	sentReply:count 	10
attr title  "ARP replies sent, count"
scalar scenarioPRJP1.node[7].networkLayer.arp 	sentReq:count 	330
attr title  "ARP request sent, count"
scalar scenarioPRJP1.node[7].mobility 	startTime 	2.5
scalar scenarioPRJP1.node[7].mobility 	totalTime 	947.5
scalar scenarioPRJP1.node[7].mobility 	stopTime 	950
scalar scenarioPRJP1.node[7].mobility 	minSpeed 	2.4756241858638e-13
scalar scenarioPRJP1.node[7].mobility 	maxSpeed 	16.342386549662
scalar scenarioPRJP1.node[7].mobility 	totalDistance 	9369.4422224929
scalar scenarioPRJP1.node[7].mobility 	totalCO2Emission 	2385.8003894321
scalar scenarioPRJP1.node[7].wlan[0].mgmt 	dataQueueLen:max 	100
attr interpolationmode  sample-hold
attr title  "data queue length, max"
scalar scenarioPRJP1.node[7].wlan[0].mgmt 	dataQueueLen:timeavg 	0.013422709890026
attr interpolationmode  sample-hold
attr title  "data queue length, timeavg"
scalar scenarioPRJP1.node[7].wlan[0].mgmt 	dropPkByQueue:count 	12
attr interpolationmode  none
attr source  dropPkByQueue
attr title  "packets dropped by queue, count"
scalar scenarioPRJP1.node[7].wlan[0].mgmt 	dropPkByQueue:sum(packetBytes) 	6912
attr interpolationmode  none
attr source  dropPkByQueue
attr title  "packets dropped by queue, sum(packetBytes)"
scalar scenarioPRJP1.node[7].wlan[0].mac 	"number of received packets" 	2985
scalar scenarioPRJP1.node[7].wlan[0].mac 	"number of collisions" 	606
scalar scenarioPRJP1.node[7].wlan[0].mac 	"number of internal collisions" 	0
scalar scenarioPRJP1.node[7].wlan[0].mac 	"number of retry for AC 0" 	5242
scalar scenarioPRJP1.node[7].wlan[0].mac 	"number of retry for AC 1" 	0
scalar scenarioPRJP1.node[7].wlan[0].mac 	"number of retry for AC 2" 	0
scalar scenarioPRJP1.node[7].wlan[0].mac 	"number of retry for AC 3" 	0
scalar scenarioPRJP1.node[7].wlan[0].mac 	"sent and received bits" 	6121472
scalar scenarioPRJP1.node[7].wlan[0].mac 	"sent packet within AC 0" 	885
scalar scenarioPRJP1.node[7].wlan[0].mac 	"sent packet within AC 1" 	0
scalar scenarioPRJP1.node[7].wlan[0].mac 	"sent packet within AC 2" 	0
scalar scenarioPRJP1.node[7].wlan[0].mac 	"sent packet within AC 3" 	0
scalar scenarioPRJP1.node[7].wlan[0].mac 	"sent in TXOP " 	0
scalar scenarioPRJP1.node[7].wlan[0].mac 	"sentWithoutRetry AC 0" 	840
scalar scenarioPRJP1.node[7].wlan[0].mac 	"sentWithoutRetry AC 1" 	0
scalar scenarioPRJP1.node[7].wlan[0].mac 	"sentWithoutRetry AC 2" 	0
scalar scenarioPRJP1.node[7].wlan[0].mac 	"sentWithoutRetry AC 3" 	0
scalar scenarioPRJP1.node[7].wlan[0].mac 	"numGivenUp AC 0" 	864
scalar scenarioPRJP1.node[7].wlan[0].mac 	"numGivenUp AC 1" 	0
scalar scenarioPRJP1.node[7].wlan[0].mac 	"numGivenUp AC 2" 	0
scalar scenarioPRJP1.node[7].wlan[0].mac 	"numGivenUp AC 3" 	0
scalar scenarioPRJP1.node[7].wlan[0].mac 	"numDropped AC 0" 	159
scalar scenarioPRJP1.node[7].wlan[0].mac 	"numDropped AC 1" 	0
scalar scenarioPRJP1.node[7].wlan[0].mac 	"numDropped AC 2" 	0
scalar scenarioPRJP1.node[7].wlan[0].mac 	"numDropped AC 3" 	0
scalar scenarioPRJP1.node[7].wlan[0].mac 	rcvdPkFromLL:count 	18871
attr interpolationmode  none
attr source  packetReceivedFromLower
attr title  "packets received from lower layer, count"
scalar scenarioPRJP1.node[7].wlan[0].mac 	rcvdPkFromLL:sum(packetBytes) 	6302908
attr interpolationmode  none
attr source  packetReceivedFromLower
attr title  "packets received from lower layer, sum(packetBytes)"
scalar scenarioPRJP1.node[7].wlan[0].mac 	sentDownPk:count 	13203
attr interpolationmode  none
attr source  packetSentToLower
attr title  "packets sent to lower layer, count"
scalar scenarioPRJP1.node[7].wlan[0].mac 	sentDownPk:sum(packetBytes) 	4066930
attr interpolationmode  none
attr source  packetSentToLower
attr title  "packets sent to lower layer, sum(packetBytes)"
scalar scenarioPRJP1.node[7].wlan[0].mac 	rcvdPkFromHL:count 	5135
attr interpolationmode  none
attr source  packetReceivedFromUpper
attr title  "packets received from higher layer, count"
scalar scenarioPRJP1.node[7].wlan[0].mac 	rcvdPkFromHL:sum(packetBytes) 	1311444
attr interpolationmode  none
attr source  packetReceivedFromUpper
attr title  "packets received from higher layer, sum(packetBytes)"
scalar scenarioPRJP1.node[7].wlan[0].mac 	passedUpPk:count 	5611
attr interpolationmode  none
attr source  packetSentToUpper
attr title  "packets passed to higher layer, count"
scalar scenarioPRJP1.node[7].wlan[0].mac 	passedUpPk:sum(packetBytes) 	1225864
attr interpolationmode  none
attr source  packetSentToUpper
[...]
attr interpolationmode  none
attr source  packetSentToUpper
attr title  "packets passed to higher layer, sum(packetBytes)"
statistic scenarioPRJP1.node[4].wlan[0].radio 	radioChannel:histogram
field count 1
field mean 3
field stddev -nan
field sum 3
field sqrsum 9
field min 3
field max 3
attr interpolationmode  sample-hold
attr source  radioChannelChanged
attr title  "Radio channel, histogram"
bin	-INF	0
bin	2	0
bin	3	1
bin	4	0
scalar scenarioPRJP1.node[4].wlan[0].radio 	transmissionState:count 	33328
attr interpolationmode  sample-hold
attr source  transmissionStateChanged
attr title  "Radio transmission state, count"
scalar scenarioPRJP1.node[4].wlan[0].radio 	receptionState:count 	51064
attr interpolationmode  sample-hold
attr source  receptionStateChanged
attr title  "Radio reception state, count"
scalar scenarioPRJP1.node[4].wlan[0].radio 	radioMode:count 	16666
attr interpolationmode  sample-hold
attr source  radioModeChanged
attr title  "Radio mode, count"
statistic scenarioPRJP1.node[4].wlan[0].radio 	symbolErrorRate:histogram
field count 0
field mean -nan
field stddev -nan
field sum 0
field sqrsum 0
field min -nan
field max -nan
attr source  symbolErrorRate
attr title  "Symbol error rate, histogram"
bin	-INF	0
bin	-0.5	0
bin	-0.46666666666667	0
bin	-0.43333333333333	0
bin	-0.4	0
bin	-0.36666666666667	0
bin	-0.33333333333333	0
bin	-0.3	0
bin	-0.26666666666667	0
bin	-0.23333333333333	0
bin	-0.2	0
bin	-0.16666666666667	0
bin	-0.13333333333333	0
bin	-0.1	0
bin	-0.066666666666667	0
bin	-0.033333333333333	0
bin	0	0
bin	0.033333333333333	0
bin	0.066666666666667	0
bin	0.1	0
bin	0.13333333333333	0
bin	0.16666666666667	0
bin	0.2	0
bin	0.23333333333333	0
bin	0.26666666666667	0
bin	0.3	0
bin	0.33333333333333	0
bin	0.36666666666667	0
bin	0.4	0
bin	0.43333333333333	0
bin	0.46666666666667	0
bin	0.5	0
statistic scenarioPRJP1.node[4].wlan[0].radio 	bitErrorRate:histogram
field count 0
field mean -nan
field stddev -nan
field sum 0
field sqrsum 0
field min -nan
field max -nan
attr source  bitErrorRate
attr title  "Bit error rate, histogram"
bin	-INF	0
bin	-0.5	0
bin	-0.46666666666667	0
bin	-0.43333333333333	0
bin	-0.4	0
bin	-0.36666666666667	0
bin	-0.33333333333333	0
bin	-0.3	0
bin	-0.26666666666667	0
bin	-0.23333333333333	0
bin	-0.2	0
bin	-0.16666666666667	0
bin	-0.13333333333333	0
bin	-0.1	0
bin	-0.066666666666667	0
bin	-0.033333333333333	0
bin	0	0
bin	0.033333333333333	0
bin	0.066666666666667	0
bin	0.1	0
bin	0.13333333333333	0
bin	0.16666666666667	0
bin	0.2	0
bin	0.23333333333333	0
bin	0.26666666666667	0
bin	0.3	0
bin	0.33333333333333	0
bin	0.36666666666667	0
bin	0.4	0
bin	0.43333333333333	0
bin	0.46666666666667	0
bin	0.5	0
statistic scenarioPRJP1.node[4].wlan[0].radio 	packetErrorRate:histogram
field count 17107
field mean 0.023010776775504
field stddev 0.14757770436776
field sum 393.64535829855
field sqrsum 381.61271847393
field min 0
field max 1
attr source  packetErrorRate
attr title  "Packet error rate, histogram"
bin	-INF	0
bin	-0.5	0
bin	-0.43333333333333	0
bin	-0.36666666666667	0
bin	-0.3	0
bin	-0.23333333333333	0
bin	-0.16666666666667	0
bin	-0.1	0
bin	-0.033333333333333	16667
bin	0.033333333333333	16
bin	0.1	9
bin	0.16666666666667	7
bin	0.23333333333333	5
bin	0.3	6
bin	0.36666666666667	4
bin	0.43333333333333	2
bin	0.5	1
bin	0.56666666666667	6
bin	0.63333333333333	5
bin	0.7	5
bin	0.76666666666667	2
bin	0.83333333333333	3
bin	0.9	4
bin	0.96666666666667	365
bin	1.0333333333333	0
bin	1.1	0
bin	1.1666666666667	0
bin	1.2333333333333	0
bin	1.3	0
bin	1.3666666666667	0
bin	1.4333333333333	0
bin	1.5	0
statistic scenarioPRJP1.node[4].wlan[0].radio 	minSNIR:histogram
field count 17107
field mean 22521.036391801
field stddev 75902.895881589
field sum 385267369.55454
field sqrsum 1.0722855616284e+14
field min 0.00022918413625527
field max 2480371.6994528
attr source  minSNIR
attr title  "Min SNIR, histogram"
bin	-INF	0
bin	-3427.894980426	0
bin	-2970.8145217729	0
bin	-2513.7340631198	0
bin	-2056.6536044667	0
bin	-1599.5731458135	0
bin	-1142.4926871604	0
bin	-685.41222850733	0
bin	-228.33176985423	4870
bin	228.74868879888	2820
bin	685.82914745199	860
bin	1142.9096061051	577
bin	1599.9900647582	453
bin	2057.0705234113	400
bin	2514.1509820644	349
bin	2971.2314407175	287
bin	3428.3118993706	264
bin	3885.3923580237	208
bin	4342.4728166768	196
bin	4799.55327533	183
bin	5256.6337339831	174
bin	5713.7141926362	158
bin	6170.7946512893	159
bin	6627.8751099424	152
bin	7084.9555685955	163
bin	7542.0360272486	107
bin	7999.1164859017	121
bin	8456.1969445548	92
bin	8913.2774032079	126
bin	9370.357861861	78
bin	9827.4383205141	85
bin	10284.518779167	4225
scalar scenarioPRJP1.node[4].lo0.lo 	droppedPkBitError:count 	0
attr interpolationmode  none
attr source  dropPkBitError
attr title  "packets dropped/bit error, count"
scalar scenarioPRJP1.node[4].lo0.lo 	droppedPkBitError:sum(packetBytes) 	0
attr interpolationmode  none
attr source  dropPkBitError
attr title  "packets dropped/bit error, sum(packetBytes)"
scalar scenarioPRJP1.node[4].lo0.lo 	rcvdPkFromHL:count 	0
attr interpolationmode  none
attr source  packetReceivedFromUpper
attr title  "packets received from higher layer, count"
scalar scenarioPRJP1.node[4].lo0.lo 	rcvdPkFromHL:sum(packetBytes) 	0
attr interpolationmode  none
attr source  packetReceivedFromUpper
attr title  "packets received from higher layer, sum(packetBytes)"
scalar scenarioPRJP1.node[4].lo0.lo 	passedUpPk:count 	0
attr interpolationmode  none
attr source  packetSentToUpper
attr title  "packets passed to higher layer, count"
scalar scenarioPRJP1.node[4].lo0.lo 	passedUpPk:sum(packetBytes) 	0
attr interpolationmode  none
attr source  packetSentToUpper
attr title  "packets passed to higher layer, sum(packetBytes)"
scalar scenarioPRJP1.node[9].app 	"Total sent" 	2609
scalar scenarioPRJP1.node[9].app 	"Total received" 	254
scalar scenarioPRJP1.node[9].app 	"Total deleted" 	43
scalar scenarioPRJP1.node[9].app 	dropPk:count 	43
attr interpolationmode  none
attr source  dropPk
attr title  "packets dropped, count"
scalar scenarioPRJP1.node[9].app 	dropPk:sum(packetBytes) 	22016
attr interpolationmode  none
attr source  dropPk
attr title  "packets dropped, sum(packetBytes)"
scalar scenarioPRJP1.node[9].app 	outOfOrderPk:count 	505
attr interpolationmode  none
attr source  outOfOrderPk
attr title  "packets received out of order, count"
scalar scenarioPRJP1.node[9].app 	outOfOrderPk:sum(packetBytes) 	258560
attr interpolationmode  none
attr source  outOfOrderPk
attr title  "packets received out of order, sum(packetBytes)"
scalar scenarioPRJP1.node[9].app 	rcvdPk:count 	254
attr interpolationmode  none
attr source  rcvdPk
attr title  "packets received, count"
scalar scenarioPRJP1.node[9].app 	rcvdPk:sum(packetBytes) 	130048
attr interpolationmode  none
attr source  rcvdPk
attr title  "packets received, sum(packetBytes)"
statistic scenarioPRJP1.node[9].app 	endToEndDelay:histogram
field count 254
field mean 3.661499643168
field stddev 5.4268217295038
field sum 930.02090936468
field sqrsum 10856.220930983
field min 0.000945158672
field max 19.148688953
attr interpolationmode  none
attr source  messageAge(rcvdPk)
attr title  "delay, histogram"
attr unit  s
bin	-INF	0
bin	-9.5211154714295	0
bin	-8.251507387416	0
bin	-6.9818993034024	0
bin	-5.7122912193889	0
bin	-4.4426831353754	0
bin	-3.1730750513618	0
bin	-1.9034669673483	0
bin	-0.63385888333477	134
bin	0.63574920067877	22
bin	1.9053572846923	11
bin	3.1749653687058	11
bin	4.4445734527194	12
bin	5.7141815367329	8
bin	6.9837896207464	8
bin	8.25339770476	6
bin	9.5230057887735	7
bin	10.792613872787	3
bin	12.062221956801	5
bin	13.331830040814	10
bin	14.601438124828	2
bin	15.871046208841	6
bin	17.140654292855	5
bin	18.410262376868	4
bin	19.679870460882	0
bin	20.949478544895	0
bin	22.219086628909	0
bin	23.488694712922	0
bin	24.758302796936	0
bin	26.027910880949	0
bin	27.297518964963	0
bin	28.567127048976	0
scalar scenarioPRJP1.node[9].app 	sentPk:count 	2609
attr interpolationmode  none
attr source  sentPk
attr title  "packets sent, count"
scalar scenarioPRJP1.node[9].app 	sentPk:sum(packetBytes) 	1335808
attr interpolationmode  none
attr source  sentPk
attr title  "packets sent, sum(packetBytes)"
scalar scenarioPRJP1.node[9].udp 	droppedPkBadChecksum:count 	0
attr interpolationmode  none
attr title  "packets dropped (checksum error), count"
scalar scenarioPRJP1.node[9].udp 	droppedPkWrongPort:count 	0
attr interpolationmode  none
attr title  "packets dropped (wrong port), count"
scalar scenarioPRJP1.node[9].udp 	passedUpPk:count 	802
attr interpolationmode  none
attr title  "packets passed up, count"
scalar scenarioPRJP1.node[9].udp 	rcvdPk:count 	802
attr interpolationmode  none
attr source  rcvdPk
attr title  "packets received, count"
scalar scenarioPRJP1.node[9].udp 	rcvdPk:sum(packetBytes) 	417040
attr interpolationmode  none
attr source  rcvdPk
attr title  "packets received, sum(packetBytes)"
scalar scenarioPRJP1.node[9].udp 	sentPk:count 	2609
attr interpolationmode  none
attr source  sentPk
attr title  "packets sent, count"
scalar scenarioPRJP1.node[9].udp 	sentPk:sum(packetBytes) 	1356680
attr interpolationmode  none
attr source  sentPk
attr title  "packets sent, sum(packetBytes)"
scalar scenarioPRJP1.node[9].networkLayer.arp 	failedARPResolution:count 	60
attr title  "ARP failed resolutions, count"
scalar scenarioPRJP1.node[9].networkLayer.arp 	completedARPResolution:count 	268
attr title  "ARP completed resolutions, count"
scalar scenarioPRJP1.node[9].networkLayer.arp 	initiatedARPResolution:count 	79
attr title  "ARP initiated resolutions, count"
scalar scenarioPRJP1.node[9].networkLayer.arp 	sentReply:count 	17
attr title  "ARP replies sent, count"
scalar scenarioPRJP1.node[9].networkLayer.arp 	sentReq:count 	218
attr title  "ARP request sent, count"
scalar scenarioPRJP1.node[9].mobility 	startTime 	2.5
scalar scenarioPRJP1.node[9].mobility 	totalTime 	947.5
scalar scenarioPRJP1.node[9].mobility 	stopTime 	950
scalar scenarioPRJP1.node[9].mobility 	minSpeed 	2.4754511842177e-13
scalar scenarioPRJP1.node[9].mobility 	maxSpeed 	18.048672534356
scalar scenarioPRJP1.node[9].mobility 	totalDistance 	8478.6491279267
scalar scenarioPRJP1.node[9].mobility 	totalCO2Emission 	2415.4975752809
scalar scenarioPRJP1.node[9].wlan[0].mgmt 	dataQueueLen:max 	100
attr interpolationmode  sample-hold
attr title  "data queue length, max"
scalar scenarioPRJP1.node[9].wlan[0].mgmt 	dataQueueLen:timeavg 	0.054976591351157
attr interpolationmode  sample-hold
attr title  "data queue length, timeavg"
scalar scenarioPRJP1.node[9].wlan[0].mgmt 	dropPkByQueue:count 	118
attr interpolationmode  none
attr source  dropPkByQueue
attr title  "packets dropped by queue, count"
scalar scenarioPRJP1.node[9].wlan[0].mgmt 	dropPkByQueue:sum(packetBytes) 	67968
attr interpolationmode  none
attr source  dropPkByQueue
attr title  "packets dropped by queue, sum(packetBytes)"
scalar scenarioPRJP1.node[9].wlan[0].mac 	"number of received packets" 	2035
scalar scenarioPRJP1.node[9].wlan[0].mac 	"number of collisions" 	451
scalar scenarioPRJP1.node[9].wlan[0].mac 	"number of internal collisions" 	0
scalar scenarioPRJP1.node[9].wlan[0].mac 	"number of retry for AC 0" 	8376
scalar scenarioPRJP1.node[9].wlan[0].mac 	"number of retry for AC 1" 	0
scalar scenarioPRJP1.node[9].wlan[0].mac 	"number of retry for AC 2" 	0
scalar scenarioPRJP1.node[9].wlan[0].mac 	"number of retry for AC 3" 	0
scalar scenarioPRJP1.node[9].wlan[0].mac 	"sent and received bits" 	4159872
scalar scenarioPRJP1.node[9].wlan[0].mac 	"sent packet within AC 0" 	378
scalar scenarioPRJP1.node[9].wlan[0].mac 	"sent packet within AC 1" 	0
scalar scenarioPRJP1.node[9].wlan[0].mac 	"sent packet within AC 2" 	0
scalar scenarioPRJP1.node[9].wlan[0].mac 	"sent packet within AC 3" 	0
scalar scenarioPRJP1.node[9].wlan[0].mac 	"sent in TXOP " 	0
scalar scenarioPRJP1.node[9].wlan[0].mac 	"sentWithoutRetry AC 0" 	361
scalar scenarioPRJP1.node[9].wlan[0].mac 	"sentWithoutRetry AC 1" 	0
scalar scenarioPRJP1.node[9].wlan[0].mac 	"sentWithoutRetry AC 2" 	0
scalar scenarioPRJP1.node[9].wlan[0].mac 	"sentWithoutRetry AC 3" 	0
scalar scenarioPRJP1.node[9].wlan[0].mac 	"numGivenUp AC 0" 	1393
scalar scenarioPRJP1.node[9].wlan[0].mac 	"numGivenUp AC 1" 	0
scalar scenarioPRJP1.node[9].wlan[0].mac 	"numGivenUp AC 2" 	0
scalar scenarioPRJP1.node[9].wlan[0].mac 	"numGivenUp AC 3" 	0
scalar scenarioPRJP1.node[9].wlan[0].mac 	"numDropped AC 0" 	214
scalar scenarioPRJP1.node[9].wlan[0].mac 	"numDropped AC 1" 	0
scalar scenarioPRJP1.node[9].wlan[0].mac 	"numDropped AC 2" 	0
scalar scenarioPRJP1.node[9].wlan[0].mac 	"numDropped AC 3" 	0
scalar scenarioPRJP1.node[9].wlan[0].mac 	rcvdPkFromLL:count 	14203
attr interpolationmode  none
attr source  packetReceivedFromLower
attr title  "packets received from lower layer, count"
scalar scenarioPRJP1.node[9].wlan[0].mac 	rcvdPkFromLL:sum(packetBytes) 	4733668
attr interpolationmode  none
attr source  packetReceivedFromLower
attr title  "packets received from lower layer, sum(packetBytes)"
scalar scenarioPRJP1.node[9].wlan[0].mac 	sentDownPk:count 	15787
attr interpolationmode  none
attr source  packetSentToLower
attr title  "packets sent to lower layer, count"
scalar scenarioPRJP1.node[9].wlan[0].mac 	sentDownPk:sum(packetBytes) 	5897446
attr interpolationmode  none
attr source  packetSentToLower
attr title  "packets sent to lower layer, sum(packetBytes)"
scalar scenarioPRJP1.node[9].wlan[0].mac 	rcvdPkFromHL:count 	5590
attr interpolationmode  none
attr source  packetReceivedFromUpper
attr title  "packets received from higher layer, count"
scalar scenarioPRJP1.node[9].wlan[0].mac 	rcvdPkFromHL:sum(packetBytes) 	1386056
attr interpolationmode  none
attr source  packetReceivedFromUpper
attr title  "packets received from higher layer, sum(packetBytes)"
scalar scenarioPRJP1.node[9].wlan[0].mac 	passedUpPk:count 	4090
attr interpolationmode  none
attr source  packetSentToUpper
attr title  "packets passed to higher layer, count"
scalar scenarioPRJP1.node[9].wlan[0].mac 	passedUpPk:sum(packetBytes) 	873052
attr interpolationmode  none
attr source  packetSentToUpper
attr title  "packets passed to higher layer, sum(packetBytes)"
statistic scenarioPRJP1.node[9].wlan[0].radio 	radioChannel:histogram
field count 1
field mean 3
field stddev -nan
field sum 3
field sqrsum 9
field min 3
field max 3
attr interpolationmode  sample-hold
attr source  radioChannelChanged
attr title  "Radio channel, histogram"
bin	-INF	0
bin	2	0
bin	3	1
bin	4	0
scalar scenarioPRJP1.node[9].wlan[0].radio 	transmissionState:count 	63148
attr interpolationmode  sample-hold
attr source  transmissionStateChanged
attr title  "Radio transmission state, count"
scalar scenarioPRJP1.node[9].wlan[0].radio 	receptionState:count 	60109
attr interpolationmode  sample-hold
attr source  receptionStateChanged
attr title  "Radio reception state, count"
scalar scenarioPRJP1.node[9].wlan[0].radio 	radioMode:count 	31576
attr interpolationmode  sample-hold
attr source  radioModeChanged
attr title  "Radio mode, count"
statistic scenarioPRJP1.node[9].wlan[0].radio 	symbolErrorRate:histogram
field count 0
field mean -nan
field stddev -nan
field sum 0
field sqrsum 0
field min -nan
field max -nan
attr source  symbolErrorRate
attr title  "Symbol error rate, histogram"
bin	-INF	0
bin	-0.5	0
bin	-0.46666666666667	0
bin	-0.43333333333333	0
bin	-0.4	0
bin	-0.36666666666667	0
bin	-0.33333333333333	0
bin	-0.3	0
bin	-0.26666666666667	0
bin	-0.23333333333333	0
bin	-0.2	0
bin	-0.16666666666667	0
bin	-0.13333333333333	0
bin	-0.1	0
bin	-0.066666666666667	0
bin	-0.033333333333333	0
bin	0	0
bin	0.033333333333333	0
bin	0.066666666666667	0
bin	0.1	0
bin	0.13333333333333	0
bin	0.16666666666667	0
bin	0.2	0
bin	0.23333333333333	0
bin	0.26666666666667	0
bin	0.3	0
bin	0.33333333333333	0
bin	0.36666666666667	0
bin	0.4	0
bin	0.43333333333333	0
bin	0.46666666666667	0
bin	0.5	0
statistic scenarioPRJP1.node[9].wlan[0].radio 	bitErrorRate:histogram
field count 0
field mean -nan
field stddev -nan
field sum 0
field sqrsum 0
field min -nan
field max -nan
attr source  bitErrorRate
attr title  "Bit error rate, histogram"
bin	-INF	0
bin	-0.5	0
bin	-0.46666666666667	0
bin	-0.43333333333333	0
bin	-0.4	0
bin	-0.36666666666667	0
bin	-0.33333333333333	0
bin	-0.3	0
bin	-0.26666666666667	0
bin	-0.23333333333333	0
bin	-0.2	0
bin	-0.16666666666667	0
bin	-0.13333333333333	0
bin	-0.1	0
bin	-0.066666666666667	0
bin	-0.033333333333333	0
bin	0	0
bin	0.033333333333333	0
bin	0.066666666666667	0
bin	0.1	0
bin	0.13333333333333	0
bin	0.16666666666667	0
bin	0.2	0
bin	0.23333333333333	0
bin	0.26666666666667	0
bin	0.3	0
bin	0.33333333333333	0
bin	0.36666666666667	0
bin	0.4	0
bin	0.43333333333333	0
bin	0.46666666666667	0
bin	0.5	0
statistic scenarioPRJP1.node[9].wlan[0].radio 	packetErrorRate:histogram
field count 14203
field mean 0.029949795175463
field stddev 0.16697459265131
field sum 425.37694087711
field sqrsum 408.69902047403
field min 0
field max 1
attr source  packetErrorRate
attr title  "Packet error rate, histogram"
bin	-INF	0
bin	-0.00013520517098259	0
bin	-0.00011717781485158	0
bin	-9.9150458720565e-05	0
bin	-8.1123102589553e-05	0
bin	-6.3095746458541e-05	0
bin	-4.506839032753e-05	0
bin	-2.7041034196518e-05	0
bin	-9.0136780655059e-06	13544
bin	9.0136780655059e-06	21
bin	2.7041034196518e-05	9
bin	4.506839032753e-05	4
bin	6.3095746458541e-05	2
bin	8.1123102589553e-05	3
bin	9.9150458720565e-05	4
bin	0.00011717781485158	5
bin	0.00013520517098259	4
bin	0.0001532325271136	1
bin	0.00017125988324461	3
bin	0.00018928723937562	0
bin	0.00020731459550664	1
bin	0.00022534195163765	1
bin	0.00024336930776866	2
bin	0.00026139666389967	2
bin	0.00027942402003068	0
bin	0.00029745137616169	1
bin	0.00031547873229271	3
bin	0.00033350608842372	3
bin	0.00035153344455473	2
bin	0.00036956080068574	0
bin	0.00038758815681675	1
bin	0.00040561551294777	587
statistic scenarioPRJP1.node[9].wlan[0].radio 	minSNIR:histogram
field count 14203
field mean 4003.0109821461
field stddev 16462.708499205
field sum 56854764.97942
field sqrsum 4076627240185.2
field min 0.00038627938770171
field max 743308.82962256
attr source  minSNIR
attr title  "Min SNIR, histogram"
bin	-INF	0
bin	-4199.2171781789	0
bin	-3638.5472043749	0
bin	-3077.8772305709	0
bin	-2517.2072567669	0
bin	-1956.5372829629	0
bin	-1395.8673091589	0
bin	-835.19733535495	0
bin	-274.52736155096	7501
bin	286.14261225303	2641
bin	846.81258605702	718
bin	1407.482559861	409
bin	1968.152533665	312
bin	2528.822507469	205
bin	3089.492481273	149
bin	3650.162455077	149
bin	4210.832428881	123
bin	4771.5024026849	79
bin	5332.1723764889	95
bin	5892.8423502929	74
bin	6453.5123240969	67
bin	7014.1822979009	61
bin	7574.8522717049	70
bin	8135.5222455089	63
bin	8696.1922193129	52
bin	9256.8621931169	52
bin	9817.5321669209	46
bin	10378.202140725	47
bin	10938.872114529	49
bin	11499.542088333	34
bin	12060.212062137	43
bin	12620.882035941	1164
scalar scenarioPRJP1.node[9].lo0.lo 	droppedPkBitError:count 	0
attr interpolationmode  none
attr source  dropPkBitError
attr title  "packets dropped/bit error, count"
scalar scenarioPRJP1.node[9].lo0.lo 	droppedPkBitError:sum(packetBytes) 	0
attr interpolationmode  none
attr source  dropPkBitError
attr title  "packets dropped/bit error, sum(packetBytes)"
scalar scenarioPRJP1.node[9].lo0.lo 	rcvdPkFromHL:count 	0
attr interpolationmode  none
attr source  packetReceivedFromUpper
attr title  "packets received from higher layer, count"
scalar scenarioPRJP1.node[9].lo0.lo 	rcvdPkFromHL:sum(packetBytes) 	0
attr interpolationmode  none
attr source  packetReceivedFromUpper
attr title  "packets received from higher layer, sum(packetBytes)"
scalar scenarioPRJP1.node[9].lo0.lo 	passedUpPk:count 	0
attr interpolationmode  none
attr source  packetSentToUpper
attr title  "packets passed to higher layer, count"
scalar scenarioPRJP1.node[9].lo0.lo 	passedUpPk:sum(packetBytes) 	0
attr interpolationmode  none
attr source  packetSentToUpper
attr title  "packets passed to higher layer, sum(packetBytes)"
