version 2
run DYMOUM-LNS-100n-2-20150818-08:07:30-9087
attr configname DYMOUM-LNS-100n
attr datetime 20150818-08:07:30
attr experiment DYMOUM-LNS-100n
attr inifile omnetpp.ini
attr iterationvars ""
attr iterationvars2 $repetition=2
attr measurement ""
attr network Prj_Part1_propag.scenarioPRJP1
attr processid 9087
attr repetition 2
attr replication #2
attr resultdir results
attr runnumber 2
attr seedset 2

scalar scenarioPRJP1.radioMedium.propagation 	"Arrival computation count" 	381212776
scalar scenarioPRJP1.radioMedium 	"transmission count" 	3850745
scalar scenarioPRJP1.radioMedium 	"radio frame send count" 	381212775
scalar scenarioPRJP1.radioMedium 	"reception computation count" 	377282400
scalar scenarioPRJP1.radioMedium 	"interference computation count" 	897590668
scalar scenarioPRJP1.radioMedium 	"reception decision computation count" 	27023171
scalar scenarioPRJP1.radioMedium 	"listening decision computation count" 	505445552
scalar scenarioPRJP1.radioMedium 	"reception cache hit" 	91.711627517047
attr unit  %
scalar scenarioPRJP1.radioMedium 	"interference cache hit" 	50
attr unit  %
scalar scenarioPRJP1.radioMedium 	"noise cache hit" 	0
attr unit  %
scalar scenarioPRJP1.radioMedium 	"snir cache hit" 	0
attr unit  %
scalar scenarioPRJP1.radioMedium 	"reception decision cache hit" 	0
attr unit  %
scalar scenarioPRJP1.node[0].app 	"Total sent" 	2613
scalar scenarioPRJP1.node[0].app 	"Total received" 	154
scalar scenarioPRJP1.node[0].app 	"Total deleted" 	0
scalar scenarioPRJP1.node[0].app 	dropPk:count 	0
attr interpolationmode  none
attr source  dropPk
attr title  "packets dropped, count"
scalar scenarioPRJP1.node[0].app 	dropPk:sum(packetBytes) 	0
attr interpolationmode  none
attr source  dropPk
attr title  "packets dropped, sum(packetBytes)"
scalar scenarioPRJP1.node[0].app 	outOfOrderPk:count 	0
attr interpolationmode  none
attr source  outOfOrderPk
attr title  "packets received out of order, count"
scalar scenarioPRJP1.node[0].app 	outOfOrderPk:sum(packetBytes) 	0
attr interpolationmode  none
attr source  outOfOrderPk
attr title  "packets received out of order, sum(packetBytes)"
scalar scenarioPRJP1.node[0].app 	rcvdPk:count 	154
attr interpolationmode  none
attr source  rcvdPk
attr title  "packets received, count"
scalar scenarioPRJP1.node[0].app 	rcvdPk:sum(packetBytes) 	78848
attr interpolationmode  none
attr source  rcvdPk
attr title  "packets received, sum(packetBytes)"
statistic scenarioPRJP1.node[0].app 	endToEndDelay:histogram
field count 154
field mean 0.63517142875718
field stddev 1.5409666569833
field sum 97.816400028605
field sqrsum 425.44065296599
field min 0.000945098808
field max 8.663003738742
attr interpolationmode  none
attr source  messageAge(rcvdPk)
attr title  "delay, histogram"
attr unit  s
bin	-INF	0
bin	-3.2159465991405	0
bin	-2.7870277060807	0
bin	-2.3581088130209	0
bin	-1.9291899199611	0
bin	-1.5002710269013	0
bin	-1.0713521338415	0
bin	-0.6424332407817	0
bin	-0.2135143477219	116
bin	0.2154045453379	10
bin	0.6443234383977	5
bin	1.0732423314575	2
bin	1.5021612245173	2
bin	1.9310801175771	4
bin	2.3599990106369	1
bin	2.7889179036967	3
bin	3.2178367967565	1
bin	3.6467556898163	2
bin	4.0756745828761	0
bin	4.5045934759359	2
bin	4.9335123689957	0
bin	5.3624312620555	0
bin	5.7913501551153	2
bin	6.2202690481751	3
bin	6.6491879412349	0
bin	7.0781068342947	0
bin	7.5070257273545	0
bin	7.9359446204143	0
bin	8.3648635134741	1
bin	8.7937824065339	0
bin	9.2227012995937	0
bin	9.6516201926535	0
scalar scenarioPRJP1.node[0].app 	sentPk:count 	2613
attr interpolationmode  none
attr source  sentPk
attr title  "packets sent, count"
scalar scenarioPRJP1.node[0].app 	sentPk:sum(packetBytes) 	1337856
attr interpolationmode  none
attr source  sentPk
attr title  "packets sent, sum(packetBytes)"
scalar scenarioPRJP1.node[0].udp 	droppedPkBadChecksum:count 	0
attr interpolationmode  none
attr title  "packets dropped (checksum error), count"
scalar scenarioPRJP1.node[0].udp 	droppedPkWrongPort:count 	0
attr interpolationmode  none
attr title  "packets dropped (wrong port), count"
scalar scenarioPRJP1.node[0].udp 	passedUpPk:count 	154
attr interpolationmode  none
attr title  "packets passed up, count"
scalar scenarioPRJP1.node[0].udp 	rcvdPk:count 	154
attr interpolationmode  none
attr source  rcvdPk
attr title  "packets received, count"
scalar scenarioPRJP1.node[0].udp 	rcvdPk:sum(packetBytes) 	80080
attr interpolationmode  none
attr source  rcvdPk
attr title  "packets received, sum(packetBytes)"
scalar scenarioPRJP1.node[0].udp 	sentPk:count 	2613
attr interpolationmode  none
attr source  sentPk
attr title  "packets sent, count"
scalar scenarioPRJP1.node[0].udp 	sentPk:sum(packetBytes) 	1358760
attr interpolationmode  none
attr source  sentPk
attr title  "packets sent, sum(packetBytes)"
scalar scenarioPRJP1.node[0].networkLayer.arp 	failedARPResolution:count 	305
attr title  "ARP failed resolutions, count"
scalar scenarioPRJP1.node[0].networkLayer.arp 	completedARPResolution:count 	4269
attr title  "ARP completed resolutions, count"
scalar scenarioPRJP1.node[0].networkLayer.arp 	initiatedARPResolution:count 	423
attr title  "ARP initiated resolutions, count"
scalar scenarioPRJP1.node[0].networkLayer.arp 	sentReply:count 	55
attr title  "ARP replies sent, count"
scalar scenarioPRJP1.node[0].networkLayer.arp 	sentReq:count 	1121
attr title  "ARP request sent, count"
scalar scenarioPRJP1.node[0].manetrouting 	"simulated time" 	950
scalar scenarioPRJP1.node[0].manetrouting 	"Dymo totalSend " 	3219084
scalar scenarioPRJP1.node[0].manetrouting 	"Dymo Rreq send" 	1676605
scalar scenarioPRJP1.node[0].manetrouting 	"Dymo Rreq rec" 	1511712
scalar scenarioPRJP1.node[0].manetrouting 	"Dymo Rrep send" 	16738
scalar scenarioPRJP1.node[0].manetrouting 	"Dymo Rrep rec" 	8314
scalar scenarioPRJP1.node[0].manetrouting 	"Dymo Rerr send" 	9800
scalar scenarioPRJP1.node[0].manetrouting 	"Dymo Rerr rec" 	39719
scalar scenarioPRJP1.node[0].mobility 	startTime 	0.1
scalar scenarioPRJP1.node[0].mobility 	totalTime 	949.9
scalar scenarioPRJP1.node[0].mobility 	stopTime 	950
scalar scenarioPRJP1.node[0].mobility 	minSpeed 	2.4755364186872e-13
scalar scenarioPRJP1.node[0].mobility 	maxSpeed 	18.826685486986
scalar scenarioPRJP1.node[0].mobility 	totalDistance 	9860.4222850716
scalar scenarioPRJP1.node[0].mobility 	totalCO2Emission 	2790.0616349293
scalar scenarioPRJP1.node[0].wlan.mgmt 	dataQueueLen:max 	8
attr interpolationmode  sample-hold
attr title  "data queue length, max"
scalar scenarioPRJP1.node[0].wlan.mgmt 	dataQueueLen:timeavg 	0
attr interpolationmode  sample-hold
attr title  "data queue length, timeavg"
scalar scenarioPRJP1.node[0].wlan.mgmt 	dropPkByQueue:count 	0
attr interpolationmode  none
attr source  dropPkByQueue
attr title  "packets dropped by queue, count"
scalar scenarioPRJP1.node[0].wlan.mgmt 	dropPkByQueue:sum(packetBytes) 	0
attr interpolationmode  none
attr source  dropPkByQueue
attr title  "packets dropped by queue, sum(packetBytes)"
scalar scenarioPRJP1.node[0].wlan.mac 	"number of received packets" 	3022
scalar scenarioPRJP1.node[0].wlan.mac 	"number of collisions" 	137988
scalar scenarioPRJP1.node[0].wlan.mac 	"number of internal collisions" 	0
scalar scenarioPRJP1.node[0].wlan.mac 	"number of retry for AC 0" 	15133
scalar scenarioPRJP1.node[0].wlan.mac 	"number of retry for AC 1" 	6
scalar scenarioPRJP1.node[0].wlan.mac 	"number of retry for AC 2" 	0
scalar scenarioPRJP1.node[0].wlan.mac 	"number of retry for AC 3" 	0
scalar scenarioPRJP1.node[0].wlan.mac 	"sent and received bits" 	45965320
scalar scenarioPRJP1.node[0].wlan.mac 	"sent packet within AC 0" 	1984
scalar scenarioPRJP1.node[0].wlan.mac 	"sent packet within AC 1" 	0
scalar scenarioPRJP1.node[0].wlan.mac 	"sent packet within AC 2" 	0
scalar scenarioPRJP1.node[0].wlan.mac 	"sent packet within AC 3" 	0
scalar scenarioPRJP1.node[0].wlan.mac 	"sent in TXOP " 	0
scalar scenarioPRJP1.node[0].wlan.mac 	"sentWithoutRetry AC 0" 	1337
scalar scenarioPRJP1.node[0].wlan.mac 	"sentWithoutRetry AC 1" 	0
scalar scenarioPRJP1.node[0].wlan.mac 	"sentWithoutRetry AC 2" 	0
scalar scenarioPRJP1.node[0].wlan.mac 	"sentWithoutRetry AC 3" 	0
scalar scenarioPRJP1.node[0].wlan.mac 	"numGivenUp AC 0" 	2273
scalar scenarioPRJP1.node[0].wlan.mac 	"numGivenUp AC 1" 	1
scalar scenarioPRJP1.node[0].wlan.mac 	"numGivenUp AC 2" 	0
scalar scenarioPRJP1.node[0].wlan.mac 	"numGivenUp AC 3" 	0
scalar scenarioPRJP1.node[0].wlan.mac 	"numDropped AC 0" 	0
scalar scenarioPRJP1.node[0].wlan.mac 	"numDropped AC 1" 	0
scalar scenarioPRJP1.node[0].wlan.mac 	"numDropped AC 2" 	0
scalar scenarioPRJP1.node[0].wlan.mac 	"numDropped AC 3" 	0
scalar scenarioPRJP1.node[0].wlan.mac 	rcvdPkFromLL:count 	280181
attr interpolationmode  none
attr source  packetReceivedFromLower
attr title  "packets received from lower layer, count"
scalar scenarioPRJP1.node[0].wlan.mac 	rcvdPkFromLL:sum(packetBytes) 	112821298
attr interpolationmode  none
attr source  packetReceivedFromLower
attr title  "packets received from lower layer, sum(packetBytes)"
scalar scenarioPRJP1.node[0].wlan.mac 	sentDownPk:count 	38158
attr interpolationmode  none
attr source  packetSentToLower
attr title  "packets sent to lower layer, count"
scalar scenarioPRJP1.node[0].wlan.mac 	sentDownPk:sum(packetBytes) 	15383772
attr interpolationmode  none
attr source  packetSentToLower
attr title  "packets sent to lower layer, sum(packetBytes)"
scalar scenarioPRJP1.node[0].wlan.mac 	rcvdPkFromHL:count 	19997
attr interpolationmode  none
attr source  packetReceivedFromUpper
attr title  "packets received from higher layer, count"
scalar scenarioPRJP1.node[0].wlan.mac 	rcvdPkFromHL:sum(packetBytes) 	6995466
attr interpolationmode  none
attr source  packetReceivedFromUpper
attr title  "packets received from higher layer, sum(packetBytes)"
scalar scenarioPRJP1.node[0].wlan.mac 	passedUpPk:count 	60689
attr interpolationmode  none
attr source  packetSentToUpper
attr title  "packets passed to higher layer, count"
scalar scenarioPRJP1.node[0].wlan.mac 	passedUpPk:sum(packetBytes) 	18548704
attr interpolationmode  none
attr source  packetSentToUpper
attr title  "packets passed to higher layer, sum(packetBytes)"
statistic scenarioPRJP1.node[0].wlan.radio 	radioChannel:histogram
field count 1
field mean 3
field stddev nan
field sum 3
field sqrsum 9
field min 3
field max 3
attr interpolationmode  sample-hold
attr source  radioChannelChanged
attr title  "Radio channel, histogram"
bin	-INF	0
bin	2	0
bin	3	1
bin	4	0
scalar scenarioPRJP1.node[0].wlan.radio 	transmissionState:count 	152632
attr interpolationmode  sample-hold
attr source  transmissionStateChanged
attr title  "Radio transmission state, count"
scalar scenarioPRJP1.node[0].wlan.radio 	receptionState:count 	735188
attr interpolationmode  sample-hold
attr source  receptionStateChanged
attr title  "Radio reception state, count"
scalar scenarioPRJP1.node[0].wlan.radio 	radioMode:count 	76318
attr interpolationmode  sample-hold
attr source  radioModeChanged
attr title  "Radio mode, count"
statistic scenarioPRJP1.node[0].wlan.radio 	symbolErrorRate:histogram
field count 0
field mean nan
field stddev nan
field sum 0
field sqrsum 0
field min nan
field max nan
attr source  symbolErrorRate
attr title  "Symbol error rate, histogram"
bin	-INF	0
bin	-0.5	0
bin	-0.46666666666667	0
bin	-0.43333333333333	0
bin	-0.4	0
bin	-0.36666666666667	0
bin	-0.33333333333333	0
bin	-0.3	0
bin	-0.26666666666667	0
bin	-0.23333333333333	0
bin	-0.2	0
bin	-0.16666666666667	0
bin	-0.13333333333333	0
bin	-0.1	0
bin	-0.066666666666667	0
bin	-0.033333333333333	0
bin	0	0
bin	0.033333333333333	0
bin	0.066666666666667	0
bin	0.1	0
bin	0.13333333333333	0
bin	0.16666666666667	0
bin	0.2	0
bin	0.23333333333333	0
bin	0.26666666666667	0
bin	0.3	0
bin	0.33333333333333	0
bin	0.36666666666667	0
bin	0.4	0
bin	0.43333333333333	0
bin	0.46666666666667	0
bin	0.5	0
statistic scenarioPRJP1.node[0].wlan.radio 	bitErrorRate:histogram
field count 0
field mean nan
field stddev nan
field sum 0
field sqrsum 0
field min nan
field max nan
attr source  bitErrorRate
attr title  "Bit error rate, histogram"
bin	-INF	0
bin	-0.5	0
bin	-0.46666666666667	0
bin	-0.43333333333333	0
bin	-0.4	0
bin	-0.36666666666667	0
bin	-0.33333333333333	0
bin	-0.3	0
bin	-0.26666666666667	0
bin	-0.23333333333333	0
bin	-0.2	0
bin	-0.16666666666667	0
bin	-0.13333333333333	0
bin	-0.1	0
bin	-0.066666666666667	0
bin	-0.033333333333333	0
bin	0	0
bin	0.033333333333333	0
bin	0.066666666666667	0
bin	0.1	0
bin	0.13333333333333	0
bin	0.16666666666667	0
bin	0.2	0
bin	0.23333333333333	0
bin	0.26666666666667	0
bin	0.3	0
bin	0.33333333333333	0
bin	0.36666666666667	0
bin	0.4	0
bin	0.43333333333333	0
bin	0.46666666666667	0
bin	0.5	0
statistic scenarioPRJP1.node[0].wlan.radio 	packetErrorRate:histogram
field count 280181
field mean 0.46477080873965
field stddev 0.48968773912438
field sum 130219.94996348
field sqrsum 127707.93731095
field min 0
field max 1
attr source  packetErrorRate
attr title  "Packet error rate, histogram"
bin	-INF	0
bin	-0.5	0
bin	-0.43333333333333	0
bin	-0.36666666666667	0
bin	-0.3	0
bin	-0.23333333333333	0
bin	-0.16666666666667	0
bin	-0.1	0
bin	-0.033333333333333	139853
bin	0.033333333333333	3966
bin	0.1	1988
bin	0.16666666666667	1333
bin	0.23333333333333	1140
bin	0.3	907
bin	0.36666666666667	761
bin	0.43333333333333	736
bin	0.5	710
bin	0.56666666666667	654
bin	0.63333333333333	695
bin	0.7	695
bin	0.76666666666667	765
bin	0.83333333333333	894
bin	0.9	1429
bin	0.96666666666667	123655
bin	1.0333333333333	0
bin	1.1	0
bin	1.1666666666667	0
bin	1.2333333333333	0
bin	1.3	0
bin	1.3666666666667	0
bin	1.4333333333333	0
bin	1.5	0
statistic scenarioPRJP1.node[0].wlan.radio 	minSNIR:histogram
field count 280181
field mean 342.22190208404
field stddev 7428.9166243611
field sum 95884074.747808
field sqrsum 15495612234116
field min 6.5466401748439e-05
field max 1986555.4693338
attr source  minSNIR
attr title  "Min SNIR, histogram"
bin	-INF	0
bin	-4183.1491977852	0
bin	-3625.3651983389	0
bin	-3067.5811988926	0
bin	-2509.7971994463	0
bin	-1952.0132	0
bin	-1394.2292005537	0
bin	-836.44520110739	0
bin	-278.66120166109	259601
bin	279.12279778521	11844
bin	836.90679723151	3014
bin	1394.6907966778	1416
bin	1952.4747961241	815
bin	2510.2587955704	521
bin	3068.0427950167	367
bin	3625.826794463	270
bin	4183.6107939093	212
bin	4741.3947933556	162
bin	5299.1787928019	142
bin	5856.9627922482	112
bin	6414.7467916945	85
bin	6972.5307911408	79
bin	7530.3147905871	78
bin	8088.0987900334	73
bin	8645.8827894797	52
bin	9203.666788926	52
bin	9761.4507883723	56
bin	10319.234787819	44
bin	10877.018787265	44
bin	11434.802786711	43
bin	11992.586786158	40
bin	12550.370785604	1059
scalar scenarioPRJP1.node[0].lo0.lo 	droppedPkBitError:count 	0
attr interpolationmode  none
attr source  dropPkBitError
attr title  "packets dropped/bit error, count"
scalar scenarioPRJP1.node[0].lo0.lo 	droppedPkBitError:sum(packetBytes) 	0
attr interpolationmode  none
attr source  dropPkBitError
attr title  "packets dropped/bit error, sum(packetBytes)"
scalar scenarioPRJP1.node[0].lo0.lo 	rcvdPkFromHL:count 	0
attr interpolationmode  none
attr source  packetReceivedFromUpper
attr title  "packets received from higher layer, count"
scalar scenarioPRJP1.node[0].lo0.lo 	rcvdPkFromHL:sum(packetBytes) 	0
attr interpolationmode  none
attr source  packetReceivedFromUpper
attr title  "packets received from higher layer, sum(packetBytes)"
scalar scenarioPRJP1.node[0].lo0.lo 	passedUpPk:count 	0
attr interpolationmode  none
attr source  packetSentToUpper
attr title  "packets passed to higher layer, count"
scalar scenarioPRJP1.node[0].lo0.lo 	passedUpPk:sum(packetBytes) 	0
attr interpolationmode  none
attr source  packetSentToUpper
attr title  "packets passed to higher layer, sum(packetBytes)"
scalar scenarioPRJP1.node[21].app 	"Total sent" 	2623
scalar scenarioPRJP1.node[21].app 	"Total received" 	132
scalar scenarioPRJP1.node[21].app 	"Total deleted" 	0
scalar scenarioPRJP1.node[21].app 	dropPk:count 	0
attr interpolationmode  none
attr source  dropPk
attr title  "packets dropped, count"
scalar scenarioPRJP1.node[21].app 	dropPk:sum(packetBytes) 	0
attr interpolationmode  none
attr source  dropPk
attr title  "packets dropped, sum(packetBytes)"
scalar scenarioPRJP1.node[21].app 	outOfOrderPk:count 	0
attr interpolationmode  none
attr source  outOfOrderPk
attr title  "packets received out of order, count"
scalar scenarioPRJP1.node[21].app 	outOfOrderPk:sum(packetBytes) 	0
attr interpolationmode  none
attr source  outOfOrderPk
attr title  "packets received out of order, sum(packetBytes)"
scalar scenarioPRJP1.node[21].app 	rcvdPk:count 	132
attr interpolationmode  none
attr source  rcvdPk
attr title  "packets received, count"
scalar scenarioPRJP1.node[21].app 	rcvdPk:sum(packetBytes) 	67584
attr interpolationmode  none
attr source  rcvdPk
attr title  "packets received, sum(packetBytes)"
statistic scenarioPRJP1.node[21].app 	endToEndDelay:histogram
field count 132
field mean 0.50429328948108
field stddev 1.2197242416529
field sum 66.566714211502
field sqrsum 228.46141384319
field min 0.000945078433
field max 7.190579876551
attr interpolationmode  none
attr source  messageAge(rcvdPk)
attr title  "delay, histogram"
attr unit  s
bin	-INF	0
bin	-3.593872320626	0
bin	-3.1145633340848	0
bin	-2.6352543475436	0
bin	-2.1559453610024	0
bin	-1.6766363744612	0
bin	-1.19732738792	0
bin	-0.7180184013788	0
bin	-0.2387094148376	102
bin	0.2405995717036	7
bin	0.7199085582448	5
bin	1.199217544786	5
bin	1.6785265313272	3
bin	2.1578355178684	1
bin	2.6371445044096	3
bin	3.1164534909508	0
bin	3.595762477492	1
bin	4.0750714640332	1
bin	4.5543804505744	2
bin	5.0336894371156	0
bin	5.5129984236568	0
bin	5.992307410198	1
bin	6.4716163967392	0
bin	6.9509253832804	1
bin	7.4302343698216	0
bin	7.9095433563628	0
bin	8.388852342904	0
bin	8.8681613294452	0
bin	9.3474703159864	0
bin	9.8267793025276	0
bin	10.306088289069	0
bin	10.78539727561	0
scalar scenarioPRJP1.node[21].app 	sentPk:count 	2623
attr interpolationmode  none
attr source  sentPk
attr title  "packets sent, count"
scalar scenarioPRJP1.node[21].app 	sentPk:sum(packetBytes) 	1342976
attr interpolationmode  none
attr source  sentPk
attr title  "packets sent, sum(packetBytes)"
scalar scenarioPRJP1.node[21].udp 	droppedPkBadChecksum:count 	0
attr interpolationmode  none
attr title  "packets dropped (checksum error), count"
scalar scenarioPRJP1.node[21].udp 	droppedPkWrongPort:count 	0
attr interpolationmode  none
attr title  "packets dropped (wrong port), count"
scalar scenarioPRJP1.node[21].udp 	passedUpPk:count 	132
attr interpolationmode  none
attr title  "packets passed up, count"
scalar scenarioPRJP1.node[21].udp 	rcvdPk:count 	132
attr interpolationmode  none
attr source  rcvdPk
attr title  "packets received, count"
scalar scenarioPRJP1.node[21].udp 	rcvdPk:sum(packetBytes) 	68640
attr interpolationmode  none
attr source  rcvdPk
attr title  "packets received, sum(packetBytes)"
scalar scenarioPRJP1.node[21].udp 	sentPk:count 	2623
attr interpolationmode  none
attr source  sentPk
attr title  "packets sent, count"
scalar scenarioPRJP1.node[21].udp 	sentPk:sum(packetBytes) 	1363960
attr interpolationmode  none
attr source  sentPk
attr title  "packets sent, sum(packetBytes)"
scalar scenarioPRJP1.node[21].networkLayer.arp 	failedARPResolution:count 	271
attr title  "ARP failed resolutions, count"
scalar scenarioPRJP1.node[21].networkLayer.arp 	completedARPResolution:count 	4221
attr title  "ARP completed resolutions, count"
scalar scenarioPRJP1.node[21].networkLayer.arp 	initiatedARPResolution:count 	379
attr title  "ARP initiated resolutions, count"
scalar scenarioPRJP1.node[21].networkLayer.arp 	sentReply:count 	72
attr title  "ARP replies sent, count"
scalar scenarioPRJP1.node[21].networkLayer.arp 	sentReq:count 	998
attr title  "ARP request sent, count"
scalar scenarioPRJP1.node[21].mobility 	startTime 	2.5
scalar scenarioPRJP1.node[21].mobility 	totalTime 	947.5
scalar scenarioPRJP1.node[21].mobility 	stopTime 	950
scalar scenarioPRJP1.node[21].mobility 	minSpeed 	2.4754610559908e-13
scalar scenarioPRJP1.node[21].mobility 	maxSpeed 	17.436199542861
scalar scenarioPRJP1.node[21].mobility 	totalDistance 	8961.3740768155
scalar scenarioPRJP1.node[21].mobility 	totalCO2Emission 	2356.2148708853
scalar scenarioPRJP1.node[21].wlan.mgmt 	dataQueueLen:max 	11
attr interpolationmode  sample-hold
attr title  "data queue length, max"
scalar scenarioPRJP1.node[21].wlan.mgmt 	dataQueueLen:timeavg 	0
attr interpolationmode  sample-hold
attr title  "data queue length, timeavg"
scalar scenarioPRJP1.node[21].wlan.mgmt 	dropPkByQueue:count 	0
attr interpolationmode  none
attr source  dropPkByQueue
attr title  "packets dropped by queue, count"
scalar scenarioPRJP1.node[21].wlan.mgmt 	dropPkByQueue:sum(packetBytes) 	0
attr interpolationmode  none
attr source  dropPkByQueue
attr title  "packets dropped by queue, sum(packetBytes)"
scalar scenarioPRJP1.node[21].wlan.mac 	"number of received packets" 	3178
scalar scenarioPRJP1.node[21].wlan.mac 	"number of collisions" 	131430
scalar scenarioPRJP1.node[21].wlan.mac 	"number of internal collisions" 	0
scalar scenarioPRJP1.node[21].wlan.mac 	"number of retry for AC 0" 	16799
scalar scenarioPRJP1.node[21].wlan.mac 	"number of retry for AC 1" 	0
scalar scenarioPRJP1.node[21].wlan.mac 	"number of retry for AC 2" 	0
scalar scenarioPRJP1.node[21].wlan.mac 	"number of retry for AC 3" 	0
scalar scenarioPRJP1.node[21].wlan.mac 	"sent and received bits" 	46902664
scalar scenarioPRJP1.node[21].wlan.mac 	"sent packet within AC 0" 	1835
scalar scenarioPRJP1.node[21].wlan.mac 	"sent packet within AC 1" 	1
scalar scenarioPRJP1.node[21].wlan.mac 	"sent packet within AC 2" 	0
scalar scenarioPRJP1.node[21].wlan.mac 	"sent packet within AC 3" 	0
scalar scenarioPRJP1.node[21].wlan.mac 	"sent in TXOP " 	0
scalar scenarioPRJP1.node[21].wlan.mac 	"sentWithoutRetry AC 0" 	1220
scalar scenarioPRJP1.node[21].wlan.mac 	"sentWithoutRetry AC 1" 	1
scalar scenarioPRJP1.node[21].wlan.mac 	"sentWithoutRetry AC 2" 	0
scalar scenarioPRJP1.node[21].wlan.mac 	"sentWithoutRetry AC 3" 	0
scalar scenarioPRJP1.node[21].wlan.mac 	"numGivenUp AC 0" 	2532
scalar scenarioPRJP1.node[21].wlan.mac 	"numGivenUp AC 1" 	0
scalar scenarioPRJP1.node[21].wlan.mac 	"numGivenUp AC 2" 	0
scalar scenarioPRJP1.node[21].wlan.mac 	"numGivenUp AC 3" 	0
scalar scenarioPRJP1.node[21].wlan.mac 	"numDropped AC 0" 	0
scalar scenarioPRJP1.node[21].wlan.mac 	"numDropped AC 1" 	0
scalar scenarioPRJP1.node[21].wlan.mac 	"numDropped AC 2" 	0
scalar scenarioPRJP1.node[21].wlan.mac 	"numDropped AC 3" 	0
scalar scenarioPRJP1.node[21].wlan.mac 	rcvdPkFromLL:count 	258762
attr interpolationmode  none
attr source  packetReceivedFromLower
attr title  "packets received from lower layer, count"
scalar scenarioPRJP1.node[21].wlan.mac 	rcvdPkFromLL:sum(packetBytes) 	104806888
attr interpolationmode  none
attr source  packetReceivedFromLower
attr title  "packets received from lower layer, sum(packetBytes)"
scalar scenarioPRJP1.node[21].wlan.mac 	sentDownPk:count 	39671
attr interpolationmode  none
attr source  packetSentToLower
attr title  "packets sent to lower layer, count"
scalar scenarioPRJP1.node[21].wlan.mac 	sentDownPk:sum(packetBytes) 	16546914
attr interpolationmode  none
attr source  packetSentToLower
attr title  "packets sent to lower layer, sum(packetBytes)"
scalar scenarioPRJP1.node[21].wlan.mac 	rcvdPkFromHL:count 	19694
attr interpolationmode  none
attr source  packetReceivedFromUpper
attr title  "packets received from higher layer, count"
scalar scenarioPRJP1.node[21].wlan.mac 	rcvdPkFromHL:sum(packetBytes) 	7253655
attr interpolationmode  none
attr source  packetReceivedFromUpper
attr title  "packets received from higher layer, sum(packetBytes)"
scalar scenarioPRJP1.node[21].wlan.mac 	passedUpPk:count 	54887
attr interpolationmode  none
attr source  packetSentToUpper
attr title  "packets passed to higher layer, count"
scalar scenarioPRJP1.node[21].wlan.mac 	passedUpPk:sum(packetBytes) 	17263038
attr interpolationmode  none
attr source  packetSentToUpper
attr title  "packets passed to higher layer, sum(packetBytes)"
statistic scenarioPRJP1.node[21].wlan.radio 	radioChannel:histogram
field count 1
field mean 3
field stddev nan
field sum 3
field sqrsum 9
field min 3
field max 3
attr interpolationmode  sample-hold
attr source  radioChannelChanged
attr title  "Radio channel, histogram"
bin	-INF	0
bin	2	0
bin	3	1
bin	4	0
scalar scenarioPRJP1.node[21].wlan.radio 	transmissionState:count 	158684
attr interpolationmode  sample-hold
attr source  transmissionStateChanged
attr title  "Radio transmission state, count"
scalar scenarioPRJP1.node[21].wlan.radio 	receptionState:count 	685339
attr interpolationmode  sample-hold
attr source  receptionStateChanged
attr title  "Radio reception state, count"
scalar scenarioPRJP1.node[21].wlan.radio 	radioMode:count 	79344
attr interpolationmode  sample-hold
attr source  radioModeChanged
attr title  "Radio mode, count"
statistic scenarioPRJP1.node[21].wlan.radio 	symbolErrorRate:histogram
field count 0
field mean nan
field stddev nan
field sum 0
field sqrsum 0
field min nan
field max nan
attr source  symbolErrorRate
attr title  "Symbol error rate, histogram"
bin	-INF	0
bin	-0.5	0
bin	-0.46666666666667	0
bin	-0.43333333333333	0
bin	-0.4	0
bin	-0.36666666666667	0
bin	-0.33333333333333	0
bin	-0.3	0
bin	-0.26666666666667	0
bin	-0.23333333333333	0
bin	-0.2	0
bin	-0.16666666666667	0
bin	-0.13333333333333	0
bin	-0.1	0
bin	-0.066666666666667	0
bin	-0.033333333333333	0
bin	0	0
bin	0.033333333333333	0
bin	0.066666666666667	0
bin	0.1	0
bin	0.13333333333333	0
bin	0.16666666666667	0
bin	0.2	0
bin	0.23333333333333	0
bin	0.26666666666667	0
bin	0.3	0
bin	0.33333333333333	0
bin	0.36666666666667	0
bin	0.4	0
bin	0.43333333333333	0
bin	0.46666666666667	0
bin	0.5	0
statistic scenarioPRJP1.node[21].wlan.radio 	bitErrorRate:histogram
field count 0
field mean nan
field stddev nan
field sum 0
field sqrsum 0
field min nan
field max nan
attr source  bitErrorRate
attr title  "Bit error rate, histogram"
bin	-INF	0
bin	-0.5	0
bin	-0.46666666666667	0
bin	-0.43333333333333	0
bin	-0.4	0
bin	-0.36666666666667	0
bin	-0.33333333333333	0
bin	-0.3	0
bin	-0.26666666666667	0
bin	-0.23333333333333	0
bin	-0.2	0
bin	-0.16666666666667	0
bin	-0.13333333333333	0
bin	-0.1	0
bin	-0.066666666666667	0
bin	-0.033333333333333	0
bin	0	0
bin	0.033333333333333	0
bin	0.066666666666667	0
bin	0.1	0
bin	0.13333333333333	0
bin	0.16666666666667	0
bin	0.2	0
bin	0.23333333333333	0
bin	0.26666666666667	0
bin	0.3	0
bin	0.33333333333333	0
bin	0.36666666666667	0
bin	0.4	0
bin	0.43333333333333	0
bin	0.46666666666667	0
bin	0.5	0
statistic scenarioPRJP1.node[21].wlan.radio 	packetErrorRate:histogram
field count 258762
field mean 0.47780390666918
field stddev 0.48966912953891
field sum 123637.49449753
field sqrsum 121119.11826568
field min 0
field max 1
attr source  packetErrorRate
attr title  "Packet error rate, histogram"
bin	-INF	0
bin	-0.5	0
bin	-0.43333333333333	0
bin	-0.36666666666667	0
bin	-0.3	0
bin	-0.23333333333333	0
bin	-0.16666666666667	0
bin	-0.1	0
bin	-0.033333333333333	125117
bin	0.033333333333333	3888
bin	0.1	1955
bin	0.16666666666667	1391
bin	0.23333333333333	1030
bin	0.3	890
bin	0.36666666666667	797
bin	0.43333333333333	730
bin	0.5	708
bin	0.56666666666667	685
bin	0.63333333333333	682
bin	0.7	728
bin	0.76666666666667	804
bin	0.83333333333333	955
bin	0.9	1423
bin	0.96666666666667	116979
bin	1.0333333333333	0
bin	1.1	0
bin	1.1666666666667	0
bin	1.2333333333333	0
bin	1.3	0
bin	1.3666666666667	0
bin	1.4333333333333	0
bin	1.5	0
statistic scenarioPRJP1.node[21].wlan.radio 	minSNIR:histogram
field count 258762
field mean 313.07375286593
field stddev 6908.8900039192
field sum 81011590.439094
field sqrsum 12376739594085
field min 0.00010808488610829
field max 918714.40144668
attr source  minSNIR
attr title  "Min SNIR, histogram"
bin	-INF	0
bin	-5001.4832518844	0
bin	-4334.6181622947	0
bin	-3667.753072705	0
bin	-3000.8879831153	0
bin	-2334.0228935256	0
bin	-1667.1578039359	0
bin	-1000.2927143462	0
bin	-333.42762475655	244691
bin	333.43746483315	7733
bin	1000.3025544228	2110
bin	1667.1676440125	1007
bin	2334.0327336022	564
bin	3000.8978231919	418
bin	3667.7629127816	271
bin	4334.6280023713	212
bin	5001.493091961	162
bin	5668.3581815507	135
bin	6335.2232711404	121
bin	7002.0883607301	93
bin	7668.9534503198	86
bin	8335.8185399095	70
bin	9002.6836294992	69
bin	9669.5487190889	49
bin	10336.413808679	54
bin	11003.278898268	34
bin	11670.143987858	36
bin	12337.009077448	39
bin	13003.874167037	35
bin	13670.739256627	29
bin	14337.604346217	20
bin	15004.469435806	724
scalar scenarioPRJP1.node[21].lo0.lo 	droppedPkBitError:count 	0
attr interpolationmode  none
attr source  dropPkBitError
attr title  "packets dropped/bit error, count"
scalar scenarioPRJP1.node[21].lo0.lo 	droppedPkBitError:sum(packetBytes) 	0
attr interpolationmode  none
attr source  dropPkBitError
attr title  "packets dropped/bit error, sum(packetBytes)"
scalar scenarioPRJP1.node[21].lo0.lo 	rcvdPkFromHL:count 	0
attr interpolationmode  none
attr source  packetReceivedFromUpper
attr title  "packets received from higher layer, count"
scalar scenarioPRJP1.node[21].lo0.lo 	rcvdPkFromHL:sum(packetBytes) 	0
attr interpolationmode  none
attr source  packetReceivedFromUpper
attr title  "packets received from higher layer, sum(packetBytes)"
scalar scenarioPRJP1.node[21].lo0.lo 	passedUpPk:count 	0
attr interpolationmode  none
attr source  packetSentToUpper
attr title  "packets passed to higher layer, count"
scalar scenarioPRJP1.node[21].lo0.lo 	passedUpPk:sum(packetBytes) 	0
attr interpolationmode  none
attr source  packetSentToUpper
attr title  "packets passed to higher layer, sum(packetBytes)"
scalar scenarioPRJP1.node[43].app 	"Total sent" 	2607
scalar scenarioPRJP1.node[43].app 	"Total received" 	120
scalar scenarioPRJP1.node[43].app 	"Total deleted" 	0
scalar scenarioPRJP1.node[43].app 	dropPk:count 	0
attr interpolationmode  none
attr source  dropPk
attr title  "packets dropped, count"
scalar scenarioPRJP1.node[43].app 	dropPk:sum(packetBytes) 	0
attr interpolationmode  none
attr source  dropPk
attr title  "packets dropped, sum(packetBytes)"
scalar scenarioPRJP1.node[43].app 	outOfOrderPk:count 	0
attr interpolationmode  none
attr source  outOfOrderPk
attr title  "packets received out of order, count"
scalar scenarioPRJP1.node[43].app 	outOfOrderPk:sum(packetBytes) 	0
attr interpolationmode  none
attr source  outOfOrderPk
attr title  "packets received out of order, sum(packetBytes)"
scalar scenarioPRJP1.node[43].app 	rcvdPk:count 	120
attr interpolationmode  none
attr source  rcvdPk
attr title  "packets received, count"
scalar scenarioPRJP1.node[43].app 	rcvdPk:sum(packetBytes) 	61440
attr interpolationmode  none
attr source  rcvdPk
attr title  "packets received, sum(packetBytes)"
statistic scenarioPRJP1.node[43].app 	endToEndDelay:histogram
field count 120
field mean 0.75341759826057
field stddev 1.9929197360558
field sum 90.410111791269
field sqrsum 540.75232913315
field min 0.000945133137
field max 14.846484981516
attr interpolationmode  none
attr source  messageAge(rcvdPk)
attr title  "delay, histogram"
attr unit  s
bin	-INF	0
bin	-3.9505668745295	0
bin	-3.4236986068406	0
bin	-2.8968303391518	0
bin	-2.3699620714629	0
bin	-1.843093803774	0
bin	-1.3162255360852	0
bin	-0.7893572683963	0
bin	-0.26248900070743	87
bin	0.26437926698143	7
bin	0.7912475346703	9
bin	1.3181158023592	3
bin	1.844984070048	5
bin	2.3718523377369	0
bin	2.8987206054258	1
bin	3.4255888731146	0
bin	3.9524571408035	1
bin	4.4793254084924	1
bin	5.0061936761812	1
bin	5.5330619438701	1
bin	6.059930211559	0
bin	6.5867984792478	1
bin	7.1136667469367	1
bin	7.6405350146256	1
bin	8.1674032823144	0
bin	8.6942715500033	0
bin	9.2211398176922	0
bin	9.748008085381	0
bin	10.27487635307	0
bin	10.801744620759	0
bin	11.328612888448	0
bin	11.855481156137	1
scalar scenarioPRJP1.node[43].app 	sentPk:count 	2607
attr interpolationmode  none
attr source  sentPk
attr title  "packets sent, count"
scalar scenarioPRJP1.node[43].app 	sentPk:sum(packetBytes) 	1334784
attr interpolationmode  none
attr source  sentPk
attr title  "packets sent, sum(packetBytes)"
scalar scenarioPRJP1.node[43].udp 	droppedPkBadChecksum:count 	0
attr interpolationmode  none
attr title  "packets dropped (checksum error), count"
scalar scenarioPRJP1.node[43].udp 	droppedPkWrongPort:count 	0
attr interpolationmode  none
attr title  "packets dropped (wrong port), count"
scalar scenarioPRJP1.node[43].udp 	passedUpPk:count 	120
attr interpolationmode  none
attr title  "packets passed up, count"
scalar scenarioPRJP1.node[43].udp 	rcvdPk:count 	120
attr interpolationmode  none
attr source  rcvdPk
attr title  "packets received, count"
scalar scenarioPRJP1.node[43].udp 	rcvdPk:sum(packetBytes) 	62400
attr interpolationmode  none
attr source  rcvdPk
attr title  "packets received, sum(packetBytes)"
scalar scenarioPRJP1.node[43].udp 	sentPk:count 	2607
attr interpolationmode  none
attr source  sentPk
attr title  "packets sent, count"
scalar scenarioPRJP1.node[43].udp 	sentPk:sum(packetBytes) 	1355640
attr interpolationmode  none
attr source  sentPk
attr title  "packets sent, sum(packetBytes)"
scalar scenarioPRJP1.node[43].networkLayer.arp 	failedARPResolution:count 	283
attr title  "ARP failed resolutions, count"
scalar scenarioPRJP1.node[43].networkLayer.arp 	completedARPResolution:count 	3619
attr title  "ARP completed resolutions, count"
scalar scenarioPRJP1.node[43].networkLayer.arp 	initiatedARPResolution:count 	389
attr title  "ARP initiated resolutions, count"
scalar scenarioPRJP1.node[43].networkLayer.arp 	sentReply:count 	83
attr title  "ARP replies sent, count"
scalar scenarioPRJP1.node[43].networkLayer.arp 	sentReq:count 	1040
attr title  "ARP request sent, count"
scalar scenarioPRJP1.node[43].mobility 	startTime 	4.9
scalar scenarioPRJP1.node[43].mobility 	totalTime 	945.1
scalar scenarioPRJP1.node[43].mobility 	stopTime 	950
scalar scenarioPRJP1.node[43].mobility 	minSpeed 	2.4760702399e-13
scalar scenarioPRJP1.node[43].mobility 	maxSpeed 	13.400860948825
scalar scenarioPRJP1.node[43].mobility 	totalDistance 	8592.5332568603
scalar scenarioPRJP1.node[43].mobility 	totalCO2Emission 	2027.7563681149
scalar scenarioPRJP1.node[43].wlan.mgmt 	dataQueueLen:max 	11
attr interpolationmode  sample-hold
attr title  "data queue length, max"
scalar scenarioPRJP1.node[43].wlan.mgmt 	dataQueueLen:timeavg 	0
attr interpolationmode  sample-hold
attr title  "data queue length, timeavg"
scalar scenarioPRJP1.node[43].wlan.mgmt 	dropPkByQueue:count 	0
attr interpolationmode  none
attr source  dropPkByQueue
attr title  "packets dropped by queue, count"
scalar scenarioPRJP1.node[43].wlan.mgmt 	dropPkByQueue:sum(packetBytes) 	0
attr interpolationmode  none
attr source  dropPkByQueue
attr title  "packets dropped by queue, sum(packetBytes)"
scalar scenarioPRJP1.node[43].wlan.mac 	"number of received packets" 	2802
scalar scenarioPRJP1.node[43].wlan.mac 	"number of collisions" 	121151
scalar scenarioPRJP1.node[43].wlan.mac 	"number of internal collisions" 	0
scalar scenarioPRJP1.node[43].wlan.mac 	"number of retry for AC 0" 	15974
scalar scenarioPRJP1.node[43].wlan.mac 	"number of retry for AC 1" 	6
scalar scenarioPRJP1.node[43].wlan.mac 	"number of retry for AC 2" 	0
scalar scenarioPRJP1.node[43].wlan.mac 	"number of retry for AC 3" 	0
scalar scenarioPRJP1.node[43].wlan.mac 	"sent and received bits" 	45616560
scalar scenarioPRJP1.node[43].wlan.mac 	"sent packet within AC 0" 	1732
scalar scenarioPRJP1.node[43].wlan.mac 	"sent packet within AC 1" 	0
scalar scenarioPRJP1.node[43].wlan.mac 	"sent packet within AC 2" 	0
scalar scenarioPRJP1.node[43].wlan.mac 	"sent packet within AC 3" 	0
scalar scenarioPRJP1.node[43].wlan.mac 	"sent in TXOP " 	0
scalar scenarioPRJP1.node[43].wlan.mac 	"sentWithoutRetry AC 0" 	1159
scalar scenarioPRJP1.node[43].wlan.mac 	"sentWithoutRetry AC 1" 	0
scalar scenarioPRJP1.node[43].wlan.mac 	"sentWithoutRetry AC 2" 	0
scalar scenarioPRJP1.node[43].wlan.mac 	"sentWithoutRetry AC 3" 	0
scalar scenarioPRJP1.node[43].wlan.mac 	"numGivenUp AC 0" 	2415
scalar scenarioPRJP1.node[43].wlan.mac 	"numGivenUp AC 1" 	1
scalar scenarioPRJP1.node[43].wlan.mac 	"numGivenUp AC 2" 	0
scalar scenarioPRJP1.node[43].wlan.mac 	"numGivenUp AC 3" 	0
scalar scenarioPRJP1.node[43].wlan.mac 	"numDropped AC 0" 	0
scalar scenarioPRJP1.node[43].wlan.mac 	"numDropped AC 1" 	0
scalar scenarioPRJP1.node[43].wlan.mac 	"numDropped AC 2" 	0
scalar scenarioPRJP1.node[43].wlan.mac 	"numDropped AC 3" 	0
scalar scenarioPRJP1.node[43].wlan.mac 	rcvdPkFromLL:count 	231226
attr interpolationmode  none
attr source  packetReceivedFromLower
attr title  "packets received from lower layer, count"
scalar scenarioPRJP1.node[43].wlan.mac 	rcvdPkFromLL:sum(packetBytes) 	94259372
attr interpolationmode  none
attr source  packetReceivedFromLower
attr title  "packets received from lower layer, sum(packetBytes)"
scalar scenarioPRJP1.node[43].wlan.mac 	sentDownPk:count 	38188
attr interpolationmode  none
attr source  packetSentToLower
attr title  "packets sent to lower layer, count"
scalar scenarioPRJP1.node[43].wlan.mac 	sentDownPk:sum(packetBytes) 	15790431
attr interpolationmode  none
attr source  packetSentToLower
attr title  "packets sent to lower layer, sum(packetBytes)"
scalar scenarioPRJP1.node[43].wlan.mac 	rcvdPkFromHL:count 	19406
attr interpolationmode  none
attr source  packetReceivedFromUpper
attr title  "packets received from higher layer, count"
scalar scenarioPRJP1.node[43].wlan.mac 	rcvdPkFromHL:sum(packetBytes) 	7018098
attr interpolationmode  none
attr source  packetReceivedFromUpper
attr title  "packets received from higher layer, sum(packetBytes)"
scalar scenarioPRJP1.node[43].wlan.mac 	passedUpPk:count 	47491
attr interpolationmode  none
attr source  packetSentToUpper
attr title  "packets passed to higher layer, count"
scalar scenarioPRJP1.node[43].wlan.mac 	passedUpPk:sum(packetBytes) 	15028959
attr interpolationmode  none
attr source  packetSentToUpper
attr title  "packets passed to higher layer, sum(packetBytes)"
statistic scenarioPRJP1.node[43].wlan.radio 	radioChannel:histogram
field count 1
field mean 3
field stddev nan
field sum 3
field sqrsum 9
field min 3
field max 3
attr interpolationmode  sample-hold
attr source  radioChannelChanged
attr title  "Radio channel, histogram"
bin	-INF	0
bin	2	0
bin	3	1
bin	4	0
scalar scenarioPRJP1.node[43].wlan.radio 	transmissionState:count 	152752
attr interpolationmode  sample-hold
attr source  transmissionStateChanged
attr title  "Radio transmission state, count"
scalar scenarioPRJP1.node[43].wlan.radio 	receptionState:count 	623923
attr interpolationmode  sample-hold
attr source  receptionStateChanged
attr title  "Radio reception state, count"
scalar scenarioPRJP1.node[43].wlan.radio 	radioMode:count 	76378
attr interpolationmode  sample-hold
attr source  radioModeChanged
attr title  "Radio mode, count"
statistic scenarioPRJP1.node[43].wlan.radio 	symbolErrorRate:histogram
field count 0
field mean nan
field stddev nan
field sum 0
field sqrsum 0
field min nan
field max nan
attr source  symbolErrorRate
attr title  "Symbol error rate, histogram"
bin	-INF	0
bin	-0.5	0
bin	-0.46666666666667	0
bin	-0.43333333333333	0
bin	-0.4	0
bin	-0.36666666666667	0
bin	-0.33333333333333	0
bin	-0.3	0
bin	-0.26666666666667	0
bin	-0.23333333333333	0
bin	-0.2	0
bin	-0.16666666666667	0
bin	-0.13333333333333	0
bin	-0.1	0
bin	-0.066666666666667	0
bin	-0.033333333333333	0
bin	0	0
bin	0.033333333333333	0
bin	0.066666666666667	0
bin	0.1	0
bin	0.13333333333333	0
bin	0.16666666666667	0
bin	0.2	0
bin	0.23333333333333	0
bin	0.26666666666667	0
bin	0.3	0
bin	0.33333333333333	0
bin	0.36666666666667	0
bin	0.4	0
bin	0.43333333333333	0
bin	0.46666666666667	0
bin	0.5	0
statistic scenarioPRJP1.node[43].wlan.radio 	bitErrorRate:histogram
field count 0
field mean nan
field stddev nan
field sum 0
field sqrsum 0
field min nan
field max nan
attr source  bitErrorRate
attr title  "Bit error rate, histogram"
bin	-INF	0
bin	-0.5	0
bin	-0.46666666666667	0
bin	-0.43333333333333	0
bin	-0.4	0
bin	-0.36666666666667	0
bin	-0.33333333333333	0
bin	-0.3	0
bin	-0.26666666666667	0
bin	-0.23333333333333	0
bin	-0.2	0
bin	-0.16666666666667	0
bin	-0.13333333333333	0
bin	-0.1	0
bin	-0.066666666666667	0
bin	-0.033333333333333	0
bin	0	0
bin	0.033333333333333	0
bin	0.066666666666667	0
bin	0.1	0
bin	0.13333333333333	0
bin	0.16666666666667	0
bin	0.2	0
bin	0.23333333333333	0
bin	0.26666666666667	0
bin	0.3	0
bin	0.33333333333333	0
bin	0.36666666666667	0
bin	0.4	0
bin	0.43333333333333	0
bin	0.46666666666667	0
bin	0.5	0
statistic scenarioPRJP1.node[43].wlan.radio 	packetErrorRate:histogram
field count 231226
field mean 0.49311830587356
field stddev 0.49002116447351
field sum 114021.77339392
field sqrsum 111748.14221256
field min 0
field max 1
attr source  packetErrorRate
attr title  "Packet error rate, histogram"
bin	-INF	0
bin	-0.5	0
bin	-0.43333333333333	0
bin	-0.36666666666667	0
bin	-0.3	0
bin	-0.23333333333333	0
bin	-0.16666666666667	0
bin	-0.1	0
bin	-0.033333333333333	108212
bin	0.033333333333333	3457
bin	0.1	1765
bin	0.16666666666667	1245
bin	0.23333333333333	973
bin	0.3	814
bin	0.36666666666667	707
bin	0.43333333333333	630
bin	0.5	637
bin	0.56666666666667	666
bin	0.63333333333333	606
bin	0.7	615
bin	0.76666666666667	698
bin	0.83333333333333	898
bin	0.9	1302
bin	0.96666666666667	108001
bin	1.0333333333333	0
bin	1.1	0
bin	1.1666666666667	0
bin	1.2333333333333	0
bin	1.3	0
bin	1.3666666666667	0
bin	1.4333333333333	0
bin	1.5	0
statistic scenarioPRJP1.node[43].wlan.radio 	minSNIR:histogram
field count 231226
field mean 390.62651608098
field stddev 8462.4747183714
field sum 90323006.80734
field sqrsum 16594109095048
field min 0.00011901069742924
field max 1314842.5857936
attr source  minSNIR
attr title  "Min SNIR, histogram"
bin	-INF	0
bin	-16666.280685067	0
bin	-14444.108955335	0
bin	-12221.937225604	0
bin	-9999.7654958724	0
bin	-7777.593766141	0
bin	-5555.4220364096	0
bin	-3333.2503066782	0
bin	-1111.0785769468	224630
bin	1111.0931527846	4008
bin	3333.2648825161	927
bin	5555.4366122475	406
bin	7777.6083419789	229
bin	9999.7800717103	156
bin	12221.951801442	120
bin	14444.123531173	74
bin	16666.295260905	53
bin	18888.466990636	55
bin	21110.638720367	51
bin	23332.810450099	38
bin	25554.98217983	27
bin	27777.153909562	27
bin	29999.325639293	20
bin	32221.497369024	18
bin	34443.669098756	24
bin	36665.840828487	25
bin	38888.012558219	17
bin	41110.18428795	12
bin	43332.356017682	12
bin	45554.527747413	12
bin	47776.699477144	3
bin	49998.871206876	282
scalar scenarioPRJP1.node[43].lo0.lo 	droppedPkBitError:count 	0
attr interpolationmode  none
attr source  dropPkBitError
attr title  "packets dropped/bit error, count"
scalar scenarioPRJP1.node[43].lo0.lo 	droppedPkBitError:sum(packetBytes) 	0
attr interpolationmode  none
attr source  dropPkBitError
attr title  "packets dropped/bit error, sum(packetBytes)"
scalar scenarioPRJP1.node[43].lo0.lo 	rcvdPkFromHL:count 	0
attr interpolationmode  none
attr source  packetReceivedFromUpper
attr title  "packets received from higher layer, count"
scalar scenarioPRJP1.node[43].lo0.lo 	rcvdPkFromHL:sum(packetBytes) 	0
attr interpolationmode  none
attr source  packetReceivedFromUpper
attr title  "packets received from higher layer, sum(packetBytes)"
scalar scenarioPRJP1.node[43].lo0.lo 	passedUpPk:count 	0
attr interpolationmode  none
attr source  packetSentToUpper
attr title  "packets passed to higher layer, count"
scalar scenarioPRJP1.node[43].lo0.lo 	passedUpPk:sum(packetBytes) 	0
attr interpolationmode  none
attr source  packetSentToUpper
attr title  "packets passed to higher layer, sum(packetBytes)"
scalar scenarioPRJP1.node[77].app 	"Total sent" 	2603
scalar scenarioPRJP1.node[77].app 	"Total received" 	140
scalar scenarioPRJP1.node[77].app 	"Total deleted" 	1
scalar scenarioPRJP1.node[77].app 	dropPk:count 	1
attr interpolationmode  none
attr source  dropPk
attr title  "packets dropped, count"
scalar scenarioPRJP1.node[77].app 	dropPk:sum(packetBytes) 	512
attr interpolationmode  none
attr source  dropPk
attr title  "packets dropped, sum(packetBytes)"
scalar scenarioPRJP1.node[77].app 	outOfOrderPk:count 	0
attr interpolationmode  none
attr source  outOfOrderPk
attr title  "packets received out of order, count"
scalar scenarioPRJP1.node[77].app 	outOfOrderPk:sum(packetBytes) 	0
attr interpolationmode  none
attr source  outOfOrderPk
attr title  "packets received out of order, sum(packetBytes)"
scalar scenarioPRJP1.node[77].app 	rcvdPk:count 	140
attr interpolationmode  none
attr source  rcvdPk
attr title  "packets received, count"
scalar scenarioPRJP1.node[77].app 	rcvdPk:sum(packetBytes) 	71680
attr interpolationmode  none
attr source  rcvdPk
attr title  "packets received, sum(packetBytes)"
statistic scenarioPRJP1.node[77].app 	endToEndDelay:histogram
field count 140
field mean 1.0282004339819
field stddev 2.283777873546
field sum 143.94806075746
field sqrsum 872.98160976372
field min 0.000945011007
field max 15.951411143008
attr interpolationmode  none
attr source  messageAge(rcvdPk)
attr title  "delay, histogram"
attr unit  s
bin	-INF	0
bin	-4.9757434359105	0
bin	-4.3121849763215	0
bin	-3.6486265167325	0
bin	-2.9850680571435	0
bin	-2.3215095975545	0
bin	-1.6579511379655	0
bin	-0.9943926783765	0
bin	-0.3308342187875	97
bin	0.3327242408015	9
bin	0.9962827003905	7
bin	1.6598411599795	7
bin	2.3233996195685	6
bin	2.9869580791575	1
bin	3.6505165387465	2
bin	4.3140749983355	2
bin	4.9776334579245	2
bin	5.6411919175135	0
bin	6.3047503771025	2
bin	6.9683088366915	0
bin	7.6318672962805	2
bin	8.2954257558695	1
bin	8.9589842154585	0
bin	9.6225426750475	1
bin	10.286101134636	0
bin	10.949659594226	0
bin	11.613218053814	0
bin	12.276776513404	0
bin	12.940334972992	0
bin	13.603893432582	0
bin	14.26745189217	0
bin	14.93101035176	1
scalar scenarioPRJP1.node[77].app 	sentPk:count 	2603
attr interpolationmode  none
attr source  sentPk
attr title  "packets sent, count"
scalar scenarioPRJP1.node[77].app 	sentPk:sum(packetBytes) 	1332736
attr interpolationmode  none
attr source  sentPk
attr title  "packets sent, sum(packetBytes)"
scalar scenarioPRJP1.node[77].udp 	droppedPkBadChecksum:count 	0
attr interpolationmode  none
attr title  "packets dropped (checksum error), count"
scalar scenarioPRJP1.node[77].udp 	droppedPkWrongPort:count 	0
attr interpolationmode  none
attr title  "packets dropped (wrong port), count"
scalar scenarioPRJP1.node[77].udp 	passedUpPk:count 	141
attr interpolationmode  none
attr title  "packets passed up, count"
scalar scenarioPRJP1.node[77].udp 	rcvdPk:count 	141
attr interpolationmode  none
attr source  rcvdPk
attr title  "packets received, count"
scalar scenarioPRJP1.node[77].udp 	rcvdPk:sum(packetBytes) 	73320
attr interpolationmode  none
attr source  rcvdPk
attr title  "packets received, sum(packetBytes)"
scalar scenarioPRJP1.node[77].udp 	sentPk:count 	2603
attr interpolationmode  none
attr source  sentPk
attr title  "packets sent, count"
scalar scenarioPRJP1.node[77].udp 	sentPk:sum(packetBytes) 	1353560
attr interpolationmode  none
attr source  sentPk
attr title  "packets sent, sum(packetBytes)"
scalar scenarioPRJP1.node[77].networkLayer.arp 	failedARPResolution:count 	273
attr title  "ARP failed resolutions, count"
scalar scenarioPRJP1.node[77].networkLayer.arp 	completedARPResolution:count 	3600
attr title  "ARP completed resolutions, count"
scalar scenarioPRJP1.node[77].networkLayer.arp 	initiatedARPResolution:count 	380
attr title  "ARP initiated resolutions, count"
scalar scenarioPRJP1.node[77].networkLayer.arp 	sentReply:count 	52
attr title  "ARP replies sent, count"
scalar scenarioPRJP1.node[77].networkLayer.arp 	sentReq:count 	1004
attr title  "ARP request sent, count"
scalar scenarioPRJP1.node[77].mobility 	startTime 	7.4
scalar scenarioPRJP1.node[77].mobility 	totalTime 	942.6
scalar scenarioPRJP1.node[77].mobility 	stopTime 	950
scalar scenarioPRJP1.node[77].mobility 	minSpeed 	2.4755976167518e-13
scalar scenarioPRJP1.node[77].mobility 	maxSpeed 	17.097884450828
scalar scenarioPRJP1.node[77].mobility 	totalDistance 	9311.3942382855
scalar scenarioPRJP1.node[77].mobility 	totalCO2Emission 	2470.7475449479
scalar scenarioPRJP1.node[77].wlan.mgmt 	dataQueueLen:max 	11
attr interpolationmode  sample-hold
attr title  "data queue length, max"
scalar scenarioPRJP1.node[77].wlan.mgmt 	dataQueueLen:timeavg 	0
attr interpolationmode  sample-hold
attr title  "data queue length, timeavg"
scalar scenarioPRJP1.node[77].wlan.mgmt 	dropPkByQueue:count 	0
attr interpolationmode  none
attr source  dropPkByQueue
attr title  "packets dropped by queue, count"
scalar scenarioPRJP1.node[77].wlan.mgmt 	dropPkByQueue:sum(packetBytes) 	0
attr interpolationmode  none
attr source  dropPkByQueue
attr title  "packets dropped by queue, sum(packetBytes)"
scalar scenarioPRJP1.node[77].wlan.mac 	"number of received packets" 	2953
scalar scenarioPRJP1.node[77].wlan.mac 	"number of collisions" 	120426
scalar scenarioPRJP1.node[77].wlan.mac 	"number of internal collisions" 	0
scalar scenarioPRJP1.node[77].wlan.mac 	"number of retry for AC 0" 	16282
scalar scenarioPRJP1.node[77].wlan.mac 	"number of retry for AC 1" 	6
scalar scenarioPRJP1.node[77].wlan.mac 	"number of retry for AC 2" 	0
scalar scenarioPRJP1.node[77].wlan.mac 	"number of retry for AC 3" 	0
scalar scenarioPRJP1.node[77].wlan.mac 	"sent and received bits" 	46177656
scalar scenarioPRJP1.node[77].wlan.mac 	"sent packet within AC 0" 	1736
scalar scenarioPRJP1.node[77].wlan.mac 	"sent packet within AC 1" 	0
scalar scenarioPRJP1.node[77].wlan.mac 	"sent packet within AC 2" 	0
scalar scenarioPRJP1.node[77].wlan.mac 	"sent packet within AC 3" 	0
scalar scenarioPRJP1.node[77].wlan.mac 	"sent in TXOP " 	0
scalar scenarioPRJP1.node[77].wlan.mac 	"sentWithoutRetry AC 0" 	1182
scalar scenarioPRJP1.node[77].wlan.mac 	"sentWithoutRetry AC 1" 	0
scalar scenarioPRJP1.node[77].wlan.mac 	"sentWithoutRetry AC 2" 	0
scalar scenarioPRJP1.node[77].wlan.mac 	"sentWithoutRetry AC 3" 	0
scalar scenarioPRJP1.node[77].wlan.mac 	"numGivenUp AC 0" 	2488
scalar scenarioPRJP1.node[77].wlan.mac 	"numGivenUp AC 1" 	1
scalar scenarioPRJP1.node[77].wlan.mac 	"numGivenUp AC 2" 	0
scalar scenarioPRJP1.node[77].wlan.mac 	"numGivenUp AC 3" 	0
scalar scenarioPRJP1.node[77].wlan.mac 	"numDropped AC 0" 	0
scalar scenarioPRJP1.node[77].wlan.mac 	"numDropped AC 1" 	0
scalar scenarioPRJP1.node[77].wlan.mac 	"numDropped AC 2" 	0
scalar scenarioPRJP1.node[77].wlan.mac 	"numDropped AC 3" 	0
scalar scenarioPRJP1.node[77].wlan.mac 	rcvdPkFromLL:count 	236875
attr interpolationmode  none
attr source  packetReceivedFromLower
attr title  "packets received from lower layer, count"
scalar scenarioPRJP1.node[77].wlan.mac 	rcvdPkFromLL:sum(packetBytes) 	96657300
attr interpolationmode  none
attr source  packetReceivedFromLower
attr title  "packets received from lower layer, sum(packetBytes)"
scalar scenarioPRJP1.node[77].wlan.mac 	sentDownPk:count 	38776
attr interpolationmode  none
attr source  packetSentToLower
attr title  "packets sent to lower layer, count"
scalar scenarioPRJP1.node[77].wlan.mac 	sentDownPk:sum(packetBytes) 	16183984
attr interpolationmode  none
attr source  packetSentToLower
attr title  "packets sent to lower layer, sum(packetBytes)"
scalar scenarioPRJP1.node[77].wlan.mac 	rcvdPkFromHL:count 	19536
attr interpolationmode  none
attr source  packetReceivedFromUpper
attr title  "packets received from higher layer, count"
scalar scenarioPRJP1.node[77].wlan.mac 	rcvdPkFromHL:sum(packetBytes) 	7144561
attr interpolationmode  none
attr source  packetReceivedFromUpper
attr title  "packets received from higher layer, sum(packetBytes)"
scalar scenarioPRJP1.node[77].wlan.mac 	passedUpPk:count 	51364
attr interpolationmode  none
attr source  packetSentToUpper
attr title  "packets passed to higher layer, count"
scalar scenarioPRJP1.node[77].wlan.mac 	passedUpPk:sum(packetBytes) 	16057050
attr interpolationmode  none
attr source  packetSentToUpper
attr title  "packets passed to higher layer, sum(packetBytes)"
statistic scenarioPRJP1.node[77].wlan.radio 	radioChannel:histogram
field count 1
field mean 3
field stddev nan
field sum 3
field sqrsum 9
field min 3
field max 3
attr interpolationmode  sample-hold
attr source  radioChannelChanged
attr title  "Radio channel, histogram"
bin	-INF	0
bin	2	0
bin	3	1
bin	4	0
scalar scenarioPRJP1.node[77].wlan.radio 	transmissionState:count 	155104
attr interpolationmode  sample-hold
attr source  transmissionStateChanged
attr title  "Radio transmission state, count"
scalar scenarioPRJP1.node[77].wlan.radio 	receptionState:count 	631139
attr interpolationmode  sample-hold
attr source  receptionStateChanged
attr title  "Radio reception state, count"
scalar scenarioPRJP1.node[77].wlan.radio 	radioMode:count 	77554
attr interpolationmode  sample-hold
attr source  radioModeChanged
attr title  "Radio mode, count"
statistic scenarioPRJP1.node[77].wlan.radio 	symbolErrorRate:histogram
field count 0
field mean nan
field stddev nan
field sum 0
field sqrsum 0
field min nan
field max nan
attr source  symbolErrorRate
attr title  "Symbol error rate, histogram"
bin	-INF	0
bin	-0.5	0
bin	-0.46666666666667	0
bin	-0.43333333333333	0
bin	-0.4	0
bin	-0.36666666666667	0
bin	-0.33333333333333	0
bin	-0.3	0
bin	-0.26666666666667	0
bin	-0.23333333333333	0
bin	-0.2	0
bin	-0.16666666666667	0
bin	-0.13333333333333	0
bin	-0.1	0
bin	-0.066666666666667	0
bin	-0.033333333333333	0
bin	0	0
bin	0.033333333333333	0
bin	0.066666666666667	0
bin	0.1	0
bin	0.13333333333333	0
bin	0.16666666666667	0
bin	0.2	0
bin	0.23333333333333	0
bin	0.26666666666667	0
bin	0.3	0
bin	0.33333333333333	0
bin	0.36666666666667	0
bin	0.4	0
bin	0.43333333333333	0
bin	0.46666666666667	0
bin	0.5	0
statistic scenarioPRJP1.node[77].wlan.radio 	bitErrorRate:histogram
field count 0
field mean nan
field stddev nan
field sum 0
field sqrsum 0
field min nan
field max nan
attr source  bitErrorRate
attr title  "Bit error rate, histogram"
bin	-INF	0
bin	-0.5	0
bin	-0.46666666666667	0
bin	-0.43333333333333	0
bin	-0.4	0
bin	-0.36666666666667	0
bin	-0.33333333333333	0
bin	-0.3	0
bin	-0.26666666666667	0
bin	-0.23333333333333	0
bin	-0.2	0
bin	-0.16666666666667	0
bin	-0.13333333333333	0
bin	-0.1	0
bin	-0.066666666666667	0
bin	-0.033333333333333	0
bin	0	0
bin	0.033333333333333	0
bin	0.066666666666667	0
bin	0.1	0
bin	0.13333333333333	0
bin	0.16666666666667	0
bin	0.2	0
bin	0.23333333333333	0
bin	0.26666666666667	0
bin	0.3	0
bin	0.33333333333333	0
bin	0.36666666666667	0
bin	0.4	0
bin	0.43333333333333	0
bin	0.46666666666667	0
bin	0.5	0
statistic scenarioPRJP1.node[77].wlan.radio 	packetErrorRate:histogram
field count 236875
field mean 0.4772096240607
field stddev 0.48968609080744
field sum 113039.02969938
field sqrsum 110743.91382079
field min 0
field max 1
attr source  packetErrorRate
attr title  "Packet error rate, histogram"
bin	-INF	0
bin	-0.5	0
bin	-0.43333333333333	0
bin	-0.36666666666667	0
bin	-0.3	0
bin	-0.23333333333333	0
bin	-0.16666666666667	0
bin	-0.1	0
bin	-0.033333333333333	114549
bin	0.033333333333333	3742
bin	0.1	1756
bin	0.16666666666667	1236
bin	0.23333333333333	951
bin	0.3	886
bin	0.36666666666667	744
bin	0.43333333333333	673
bin	0.5	645
bin	0.56666666666667	606
bin	0.63333333333333	575
bin	0.7	615
bin	0.76666666666667	710
bin	0.83333333333333	812
bin	0.9	1336
bin	0.96666666666667	107039
bin	1.0333333333333	0
bin	1.1	0
bin	1.1666666666667	0
bin	1.2333333333333	0
bin	1.3	0
bin	1.3666666666667	0
bin	1.4333333333333	0
bin	1.5	0
statistic scenarioPRJP1.node[77].wlan.radio 	minSNIR:histogram
field count 236875
field mean 374.48445316388
field stddev 8877.1842099461
field sum 88706004.843195
field sqrsum 18699932346243
field min 7.4027069245303e-05
field max 1517285.7600766
attr source  minSNIR
attr title  "Min SNIR, histogram"
bin	-INF	0
bin	-86972.98910986	0
bin	-75376.586420095	0
bin	-63780.183730329	0
bin	-52183.781040564	0
bin	-40587.378350799	0
bin	-28990.975661033	0
bin	-17394.572971268	0
bin	-5798.1702815023	235358
bin	5798.2324082631	964
bin	17394.635098028	180
bin	28991.037787794	81
bin	40587.440477559	52
bin	52183.843167325	28
bin	63780.24585709	18
bin	75376.648546856	19
bin	86973.051236621	19
bin	98569.453926386	14
bin	110165.85661615	11
bin	121762.25930592	8
bin	133358.66199568	10
bin	144955.06468545	10
bin	156551.46737521	7
bin	168147.87006498	12
bin	179744.27275474	5
bin	191340.67544451	2
bin	202937.07813428	4
bin	214533.48082404	4
bin	226129.88351381	4
bin	237726.28620357	1
bin	249322.68889334	2
bin	260919.0915831	62
scalar scenarioPRJP1.node[77].lo0.lo 	droppedPkBitError:count 	0
attr interpolationmode  none
attr source  dropPkBitError
attr title  "packets dropped/bit error, count"
scalar scenarioPRJP1.node[77].lo0.lo 	droppedPkBitError:sum(packetBytes) 	0
attr interpolationmode  none
attr source  dropPkBitError
attr title  "packets dropped/bit error, sum(packetBytes)"
scalar scenarioPRJP1.node[77].lo0.lo 	rcvdPkFromHL:count 	0
attr interpolationmode  none
attr source  packetReceivedFromUpper
attr title  "packets received from higher layer, count"
scalar scenarioPRJP1.node[77].lo0.lo 	rcvdPkFromHL:sum(packetBytes) 	0
attr interpolationmode  none
attr source  packetReceivedFromUpper
attr title  "packets received from higher layer, sum(packetBytes)"
scalar scenarioPRJP1.node[77].lo0.lo 	passedUpPk:count 	0
attr interpolationmode  none
attr source  packetSentToUpper
attr title  "packets passed to higher layer, count"
scalar scenarioPRJP1.node[77].lo0.lo 	passedUpPk:sum(packetBytes) 	0
attr interpolationmode  none
attr source  packetSentToUpper
attr title  "packets passed to higher layer, sum(packetBytes)"
scalar scenarioPRJP1.node[94].app 	"Total sent" 	2602
scalar scenarioPRJP1.node[94].app 	"Total received" 	156
scalar scenarioPRJP1.node[94].app 	"Total deleted" 	0
scalar scenarioPRJP1.node[94].app 	dropPk:count 	0
attr interpolationmode  none
attr source  dropPk
attr title  "packets dropped, count"
scalar scenarioPRJP1.node[94].app 	dropPk:sum(packetBytes) 	0
attr interpolationmode  none
attr source  dropPk
attr title  "packets dropped, sum(packetBytes)"
scalar scenarioPRJP1.node[94].app 	outOfOrderPk:count 	0
attr interpolationmode  none
attr source  outOfOrderPk
attr title  "packets received out of order, count"
scalar scenarioPRJP1.node[94].app 	outOfOrderPk:sum(packetBytes) 	0
attr interpolationmode  none
attr source  outOfOrderPk
attr title  "packets received out of order, sum(packetBytes)"
scalar scenarioPRJP1.node[94].app 	rcvdPk:count 	156
attr interpolationmode  none
attr source  rcvdPk
attr title  "packets received, count"
scalar scenarioPRJP1.node[94].app 	rcvdPk:sum(packetBytes) 	79872
attr interpolationmode  none
attr source  rcvdPk
attr title  "packets received, sum(packetBytes)"
statistic scenarioPRJP1.node[94].app 	endToEndDelay:histogram
field count 156
field mean 0.50333923906651
field stddev 1.2049925464734
field sum 78.520921294376
field sqrsum 264.58375151888
field min 0.000939346576
field max 9.967990013107
attr interpolationmode  none
attr source  messageAge(rcvdPk)
attr title  "delay, histogram"
attr unit  s
bin	-INF	0
bin	-2.4191739081775	0
bin	-2.096492140877	0
bin	-1.7738103735766	0
bin	-1.4511286062761	0
bin	-1.1284468389756	0
bin	-0.80576507167517	0
bin	-0.4830833043747	0
bin	-0.16040153707423	118
bin	0.16228023022623	5
bin	0.4849619975267	5
bin	0.80764376482717	4
bin	1.1303255321276	3
bin	1.4530072994281	2
bin	1.7756890667286	2
bin	2.098370834029	5
bin	2.4210526013295	3
bin	2.74373436863	4
bin	3.0664161359304	0
bin	3.3890979032309	3
bin	3.7117796705314	0
bin	4.0344614378318	0
bin	4.3571432051323	0
bin	4.6798249724328	1
bin	5.0025067397332	0
bin	5.3251885070337	0
bin	5.6478702743342	0
bin	5.9705520416346	0
bin	6.2932338089351	0
bin	6.6159155762356	0
bin	6.938597343536	0
bin	7.2612791108365	1
scalar scenarioPRJP1.node[94].app 	sentPk:count 	2602
attr interpolationmode  none
attr source  sentPk
attr title  "packets sent, count"
scalar scenarioPRJP1.node[94].app 	sentPk:sum(packetBytes) 	1332224
attr interpolationmode  none
attr source  sentPk
attr title  "packets sent, sum(packetBytes)"
scalar scenarioPRJP1.node[94].udp 	droppedPkBadChecksum:count 	0
attr interpolationmode  none
attr title  "packets dropped (checksum error), count"
scalar scenarioPRJP1.node[94].udp 	droppedPkWrongPort:count 	0
attr interpolationmode  none
attr title  "packets dropped (wrong port), count"
scalar scenarioPRJP1.node[94].udp 	passedUpPk:count 	156
attr interpolationmode  none
attr title  "packets passed up, count"
scalar scenarioPRJP1.node[94].udp 	rcvdPk:count 	156
attr interpolationmode  none
attr source  rcvdPk
attr title  "packets received, count"
scalar scenarioPRJP1.node[94].udp 	rcvdPk:sum(packetBytes) 	81120
attr interpolationmode  none
attr source  rcvdPk
attr title  "packets received, sum(packetBytes)"
scalar scenarioPRJP1.node[94].udp 	sentPk:count 	2602
attr interpolationmode  none
attr source  sentPk
attr title  "packets sent, count"
scalar scenarioPRJP1.node[94].udp 	sentPk:sum(packetBytes) 	1353040
attr interpolationmode  none
attr source  sentPk
attr title  "packets sent, sum(packetBytes)"
scalar scenarioPRJP1.node[94].networkLayer.arp 	failedARPResolution:count 	288
attr title  "ARP failed resolutions, count"
scalar scenarioPRJP1.node[94].networkLayer.arp 	completedARPResolution:count 	4708
attr title  "ARP completed resolutions, count"
scalar scenarioPRJP1.node[94].networkLayer.arp 	initiatedARPResolution:count 	400
attr title  "ARP initiated resolutions, count"
scalar scenarioPRJP1.node[94].networkLayer.arp 	sentReply:count 	65
attr title  "ARP replies sent, count"
scalar scenarioPRJP1.node[94].networkLayer.arp 	sentReq:count 	1061
attr title  "ARP request sent, count"
scalar scenarioPRJP1.node[94].mobility 	startTime 	9.8
scalar scenarioPRJP1.node[94].mobility 	totalTime 	940.2
scalar scenarioPRJP1.node[94].mobility 	stopTime 	950
scalar scenarioPRJP1.node[94].mobility 	minSpeed 	2.4761779406372e-13
scalar scenarioPRJP1.node[94].mobility 	maxSpeed 	19.782936680337
scalar scenarioPRJP1.node[94].mobility 	totalDistance 	9251.4583157204
scalar scenarioPRJP1.node[94].mobility 	totalCO2Emission 	2612.2057733581
scalar scenarioPRJP1.node[94].wlan.mgmt 	dataQueueLen:max 	12
attr interpolationmode  sample-hold
attr title  "data queue length, max"
scalar scenarioPRJP1.node[94].wlan.mgmt 	dataQueueLen:timeavg 	0
attr interpolationmode  sample-hold
attr title  "data queue length, timeavg"
scalar scenarioPRJP1.node[94].wlan.mgmt 	dropPkByQueue:count 	0
attr interpolationmode  none
attr source  dropPkByQueue
attr title  "packets dropped by queue, count"
scalar scenarioPRJP1.node[94].wlan.mgmt 	dropPkByQueue:sum(packetBytes) 	0
attr interpolationmode  none
attr source  dropPkByQueue
attr title  "packets dropped by queue, sum(packetBytes)"
scalar scenarioPRJP1.node[94].wlan.mac 	"number of received packets" 	3323
scalar scenarioPRJP1.node[94].wlan.mac 	"number of collisions" 	147994
scalar scenarioPRJP1.node[94].wlan.mac 	"number of internal collisions" 	0
scalar scenarioPRJP1.node[94].wlan.mac 	"number of retry for AC 0" 	15536
scalar scenarioPRJP1.node[94].wlan.mac 	"number of retry for AC 1" 	0
scalar scenarioPRJP1.node[94].wlan.mac 	"number of retry for AC 2" 	0
scalar scenarioPRJP1.node[94].wlan.mac 	"number of retry for AC 3" 	0
scalar scenarioPRJP1.node[94].wlan.mac 	"sent and received bits" 	46763904
scalar scenarioPRJP1.node[94].wlan.mac 	"sent packet within AC 0" 	2098
scalar scenarioPRJP1.node[94].wlan.mac 	"sent packet within AC 1" 	2
scalar scenarioPRJP1.node[94].wlan.mac 	"sent packet within AC 2" 	0
scalar scenarioPRJP1.node[94].wlan.mac 	"sent packet within AC 3" 	0
scalar scenarioPRJP1.node[94].wlan.mac 	"sent in TXOP " 	0
scalar scenarioPRJP1.node[94].wlan.mac 	"sentWithoutRetry AC 0" 	1388
scalar scenarioPRJP1.node[94].wlan.mac 	"sentWithoutRetry AC 1" 	2
scalar scenarioPRJP1.node[94].wlan.mac 	"sentWithoutRetry AC 2" 	0
scalar scenarioPRJP1.node[94].wlan.mac 	"sentWithoutRetry AC 3" 	0
scalar scenarioPRJP1.node[94].wlan.mac 	"numGivenUp AC 0" 	2302
scalar scenarioPRJP1.node[94].wlan.mac 	"numGivenUp AC 1" 	0
scalar scenarioPRJP1.node[94].wlan.mac 	"numGivenUp AC 2" 	0
scalar scenarioPRJP1.node[94].wlan.mac 	"numGivenUp AC 3" 	0
scalar scenarioPRJP1.node[94].wlan.mac 	"numDropped AC 0" 	0
scalar scenarioPRJP1.node[94].wlan.mac 	"numDropped AC 1" 	0
scalar scenarioPRJP1.node[94].wlan.mac 	"numDropped AC 2" 	0
scalar scenarioPRJP1.node[94].wlan.mac 	"numDropped AC 3" 	0
scalar scenarioPRJP1.node[94].wlan.mac 	rcvdPkFromLL:count 	304033
attr interpolationmode  none
attr source  packetReceivedFromLower
attr title  "packets received from lower layer, count"
scalar scenarioPRJP1.node[94].wlan.mac 	rcvdPkFromLL:sum(packetBytes) 	121739143
attr interpolationmode  none
attr source  packetReceivedFromLower
attr title  "packets received from lower layer, sum(packetBytes)"
scalar scenarioPRJP1.node[94].wlan.mac 	sentDownPk:count 	39200
attr interpolationmode  none
attr source  packetSentToLower
attr title  "packets sent to lower layer, count"
scalar scenarioPRJP1.node[94].wlan.mac 	sentDownPk:sum(packetBytes) 	15829535
attr interpolationmode  none
attr source  packetSentToLower
attr title  "packets sent to lower layer, sum(packetBytes)"
scalar scenarioPRJP1.node[94].wlan.mac 	rcvdPkFromHL:count 	20342
attr interpolationmode  none
attr source  packetReceivedFromUpper
attr title  "packets received from higher layer, count"
scalar scenarioPRJP1.node[94].wlan.mac 	rcvdPkFromHL:sum(packetBytes) 	7125948
attr interpolationmode  none
attr source  packetReceivedFromUpper
attr title  "packets received from higher layer, sum(packetBytes)"
scalar scenarioPRJP1.node[94].wlan.mac 	passedUpPk:count 	66939
attr interpolationmode  none
attr source  packetSentToUpper
attr title  "packets passed to higher layer, count"
scalar scenarioPRJP1.node[94].wlan.mac 	passedUpPk:sum(packetBytes) 	20032429
attr interpolationmode  none
attr source  packetSentToUpper
attr title  "packets passed to higher layer, sum(packetBytes)"
statistic scenarioPRJP1.node[94].wlan.radio 	radioChannel:histogram
field count 1
field mean 3
field stddev nan
field sum 3
field sqrsum 9
field min 3
field max 3
attr interpolationmode  sample-hold
attr source  radioChannelChanged
attr title  "Radio channel, histogram"
bin	-INF	0
bin	2	0
bin	3	1
bin	4	0
scalar scenarioPRJP1.node[94].wlan.radio 	transmissionState:count 	156800
attr interpolationmode  sample-hold
attr source  transmissionStateChanged
attr title  "Radio transmission state, count"
scalar scenarioPRJP1.node[94].wlan.radio 	receptionState:count 	794385
attr interpolationmode  sample-hold
attr source  receptionStateChanged
attr title  "Radio reception state, count"
scalar scenarioPRJP1.node[94].wlan.radio 	radioMode:count 	78402
attr interpolationmode  sample-hold
attr source  radioModeChanged
attr title  "Radio mode, count"
statistic scenarioPRJP1.node[94].wlan.radio 	symbolErrorRate:histogram
field count 0
field mean nan
field stddev nan
field sum 0
field sqrsum 0
field min nan
field max nan
attr source  symbolErrorRate
attr title  "Symbol error rate, histogram"
bin	-INF	0
bin	-0.5	0
bin	-0.46666666666667	0
bin	-0.43333333333333	0
bin	-0.4	0
bin	-0.36666666666667	0
bin	-0.33333333333333	0
bin	-0.3	0
bin	-0.26666666666667	0
bin	-0.23333333333333	0
bin	-0.2	0
bin	-0.16666666666667	0
bin	-0.13333333333333	0
bin	-0.1	0
bin	-0.066666666666667	0
bin	-0.033333333333333	0
bin	0	0
bin	0.033333333333333	0
bin	0.066666666666667	0
bin	0.1	0
bin	0.13333333333333	0
bin	0.16666666666667	0
bin	0.2	0
bin	0.23333333333333	0
bin	0.26666666666667	0
bin	0.3	0
bin	0.33333333333333	0
bin	0.36666666666667	0
bin	0.4	0
bin	0.43333333333333	0
bin	0.46666666666667	0
bin	0.5	0
statistic scenarioPRJP1.node[94].wlan.radio 	bitErrorRate:histogram
field count 0
field mean nan
field stddev nan
field sum 0
field sqrsum 0
field min nan
field max nan
attr source  bitErrorRate
attr title  "Bit error rate, histogram"
bin	-INF	0
bin	-0.5	0
bin	-0.46666666666667	0
bin	-0.43333333333333	0
bin	-0.4	0
bin	-0.36666666666667	0
bin	-0.33333333333333	0
bin	-0.3	0
bin	-0.26666666666667	0
bin	-0.23333333333333	0
bin	-0.2	0
bin	-0.16666666666667	0
bin	-0.13333333333333	0
bin	-0.1	0
bin	-0.066666666666667	0
bin	-0.033333333333333	0
bin	0	0
bin	0.033333333333333	0
bin	0.066666666666667	0
bin	0.1	0
bin	0.13333333333333	0
bin	0.16666666666667	0
bin	0.2	0
bin	0.23333333333333	0
bin	0.26666666666667	0
bin	0.3	0
bin	0.33333333333333	0
bin	0.36666666666667	0
bin	0.4	0
bin	0.43333333333333	0
bin	0.46666666666667	0
bin	0.5	0
statistic scenarioPRJP1.node[94].wlan.radio 	packetErrorRate:histogram
field count 304033
field mean 0.45949182457192
field stddev 0.48954077136105
field sum 139700.67790007
field sqrsum 137052.63890231
field min 0
field max 1
attr source  packetErrorRate
attr title  "Packet error rate, histogram"
bin	-INF	0
bin	-0.5	0
bin	-0.43333333333333	0
bin	-0.36666666666667	0
bin	-0.3	0
bin	-0.23333333333333	0
bin	-0.16666666666667	0
bin	-0.1	0
bin	-0.033333333333333	153718
bin	0.033333333333333	4214
bin	0.1	2071
bin	0.16666666666667	1387
bin	0.23333333333333	1111
bin	0.3	940
bin	0.36666666666667	856
bin	0.43333333333333	763
bin	0.5	728
bin	0.56666666666667	752
bin	0.63333333333333	717
bin	0.7	729
bin	0.76666666666667	818
bin	0.83333333333333	981
bin	0.9	1517
bin	0.96666666666667	132731
bin	1.0333333333333	0
bin	1.1	0
bin	1.1666666666667	0
bin	1.2333333333333	0
bin	1.3	0
bin	1.3666666666667	0
bin	1.4333333333333	0
bin	1.5	0
statistic scenarioPRJP1.node[94].wlan.radio 	minSNIR:histogram
field count 304033
field mean 375.36244173146
field stddev 7632.4334217653
field sum 114122569.24694
field sqrsum 17753929596582
field min 0.00011106961173391
field max 907671.43833291
attr source  minSNIR
attr title  "Min SNIR, histogram"
bin	-INF	0
bin	-3483.2654138627	0
bin	-3018.8263444014	0
bin	-2554.38727494	0
bin	-2089.9482054787	0
bin	-1625.5091360173	0
bin	-1161.070066556	0
bin	-696.63099709465	0
bin	-232.19192763331	277125
bin	232.24714182803	14516
bin	696.68621128938	4093
bin	1161.1252807507	2030
bin	1625.5643502121	1205
bin	2090.0034196734	785
bin	2554.4424891347	549
bin	3018.8815585961	415
bin	3483.3206280574	328
bin	3947.7596975188	280
bin	4412.1987669801	203
bin	4876.6378364415	167
bin	5341.0769059028	169
bin	5805.5159753641	121
bin	6269.9550448255	118
bin	6734.3941142868	106
bin	7198.8331837482	106
bin	7663.2722532095	78
bin	8127.7113226709	81
bin	8592.1503921322	66
bin	9056.5894615936	64
bin	9521.0285310549	43
bin	9985.4676005162	53
bin	10449.906669978	1332
scalar scenarioPRJP1.node[94].lo0.lo 	droppedPkBitError:count 	0
attr interpolationmode  none
attr source  dropPkBitError
attr title  "packets dropped/bit error, count"
scalar scenarioPRJP1.node[94].lo0.lo 	droppedPkBitError:sum(packetBytes) 	0
attr interpolationmode  none
attr source  dropPkBitError
attr title  "packets dropped/bit error, sum(packetBytes)"
scalar scenarioPRJP1.node[94].lo0.lo 	rcvdPkFromHL:count 	0
attr interpolationmode  none
attr source  packetReceivedFromUpper
attr title  "packets received from higher layer, count"
scalar scenarioPRJP1.node[94].lo0.lo 	rcvdPkFromHL:sum(packetBytes) 	0
attr interpolationmode  none
attr source  packetReceivedFromUpper
attr title  "packets received from higher layer, sum(packetBytes)"
scalar scenarioPRJP1.node[94].lo0.lo 	passedUpPk:count 	0
attr interpolationmode  none
attr source  packetSentToUpper
attr title  "packets passed to higher layer, count"
scalar scenarioPRJP1.node[94].lo0.lo 	passedUpPk:sum(packetBytes) 	0
attr interpolationmode  none
attr source  packetSentToUpper
attr title  "packets passed to higher layer, sum(packetBytes)"
scalar scenarioPRJP1.node[1].app 	"Total sent" 	2605
scalar scenarioPRJP1.node[1].app 	"Total received" 	153
scalar scenarioPRJP1.node[1].app 	"Total deleted" 	0
scalar scenarioPRJP1.node[1].app 	dropPk:count 	0
attr interpolationmode  none
attr source  dropPk
attr title  "packets dropped, count"
scalar scenarioPRJP1.node[1].app 	dropPk:sum(packetBytes) 	0
attr interpolationmode  none
attr source  dropPk
attr title  "packets dropped, sum(packetBytes)"
scalar scenarioPRJP1.node[1].app 	outOfOrderPk:count 	0
attr interpolationmode  none
attr source  outOfOrderPk
attr title  "packets received out of order, count"
scalar scenarioPRJP1.node[1].app 	outOfOrderPk:sum(packetBytes) 	0
attr interpolationmode  none
attr source  outOfOrderPk
attr title  "packets received out of order, sum(packetBytes)"
scalar scenarioPRJP1.node[1].app 	rcvdPk:count 	153
attr interpolationmode  none
attr source  rcvdPk
attr title  "packets received, count"
scalar scenarioPRJP1.node[1].app 	rcvdPk:sum(packetBytes) 	78336
attr interpolationmode  none
attr source  rcvdPk
attr title  "packets received, sum(packetBytes)"
statistic scenarioPRJP1.node[1].app 	endToEndDelay:histogram
field count 153
field mean 0.61729198465373
field stddev 1.6785631218937
field sum 94.44567365202
field sqrsum 486.57182876623
field min 0.000945045371
field max 10.660657761679
attr interpolationmode  none
attr source  messageAge(rcvdPk)
attr title  "delay, histogram"
attr unit  s
bin	-INF	0
bin	-5.328911312783	0
bin	-4.6182637983625	0
bin	-3.9076162839419	0
bin	-3.1969687695214	0
bin	-2.4863212551009	0
bin	-1.7756737406803	0
bin	-1.0650262262598	0
bin	-0.35437871183927	123
bin	0.35626880258127	6
bin	1.0669163170018	6
bin	1.7775638314223	5
bin	2.4882113458429	5
bin	3.1988588602634	2
bin	3.9095063746839	0
bin	4.6201538891045	2
bin	5.330801403525	0
bin	6.0414489179455	0
bin	6.7520964323661	1
bin	7.4627439467866	1
bin	8.1733914612071	0
bin	8.8840389756277	0
bin	9.5946864900482	0
bin	10.305334004469	2
bin	11.015981518889	0
bin	11.72662903331	0
bin	12.43727654773	0
bin	13.147924062151	0
bin	13.858571576571	0
bin	14.569219090992	0
bin	15.279866605412	0
bin	15.990514119833	0
scalar scenarioPRJP1.node[1].app 	sentPk:count 	2605
attr interpolationmode  none
attr source  sentPk
attr title  "packets sent, count"
scalar scenarioPRJP1.node[1].app 	sentPk:sum(packetBytes) 	1333760
attr interpolationmode  none
attr source  sentPk
attr title  "packets sent, sum(packetBytes)"
scalar scenarioPRJP1.node[1].udp 	droppedPkBadChecksum:count 	0
attr interpolationmode  none
attr title  "packets dropped (checksum error), count"
scalar scenarioPRJP1.node[1].udp 	droppedPkWrongPort:count 	0
attr interpolationmode  none
attr title  "packets dropped (wrong port), count"
scalar scenarioPRJP1.node[1].udp 	passedUpPk:count 	153
attr interpolationmode  none
attr title  "packets passed up, count"
scalar scenarioPRJP1.node[1].udp 	rcvdPk:count 	153
attr interpolationmode  none
attr source  rcvdPk
attr title  "packets received, count"
scalar scenarioPRJP1.node[1].udp 	rcvdPk:sum(packetBytes) 	79560
attr interpolationmode  none
attr source  rcvdPk
attr title  "packets received, sum(packetBytes)"
scalar scenarioPRJP1.node[1].udp 	sentPk:count 	2605
attr interpolationmode  none
attr source  sentPk
attr title  "packets sent, count"
scalar scenarioPRJP1.node[1].udp 	sentPk:sum(packetBytes) 	1354600
attr interpolationmode  none
attr source  sentPk
attr title  "packets sent, sum(packetBytes)"
scalar scenarioPRJP1.node[1].networkLayer.arp 	failedARPResolution:count 	295
attr title  "ARP failed resolutions, count"
scalar scenarioPRJP1.node[1].networkLayer.arp 	completedARPResolution:count 	4406
attr title  "ARP completed resolutions, count"
scalar scenarioPRJP1.node[1].networkLayer.arp 	initiatedARPResolution:count 	411
attr title  "ARP initiated resolutions, count"
scalar scenarioPRJP1.node[1].networkLayer.arp 	sentReply:count 	60
attr title  "ARP replies sent, count"
scalar scenarioPRJP1.node[1].networkLayer.arp 	sentReq:count 	1079
attr title  "ARP request sent, count"
scalar scenarioPRJP1.node[1].mobility 	startTime 	0.1
scalar scenarioPRJP1.node[1].mobility 	totalTime 	949.9
scalar scenarioPRJP1.node[1].mobility 	stopTime 	950
scalar scenarioPRJP1.node[1].mobility 	minSpeed 	2.4754790386877e-13
scalar scenarioPRJP1.node[1].mobility 	maxSpeed 	18.436198196301
scalar scenarioPRJP1.node[1].mobility 	totalDistance 	9588.0852298017
scalar scenarioPRJP1.node[1].mobility 	totalCO2Emission 	2696.2098379385
scalar scenarioPRJP1.node[1].wlan.mgmt 	dataQueueLen:max 	9
attr interpolationmode  sample-hold
attr title  "data queue length, max"
scalar scenarioPRJP1.node[1].wlan.mgmt 	dataQueueLen:timeavg 	0
attr interpolationmode  sample-hold
attr title  "data queue length, timeavg"
scalar scenarioPRJP1.node[1].wlan.mgmt 	dropPkByQueue:count 	0
attr interpolationmode  none
attr source  dropPkByQueue
attr title  "packets dropped by queue, count"
scalar scenarioPRJP1.node[1].wlan.mgmt 	dropPkByQueue:sum(packetBytes) 	0
attr interpolationmode  none
attr source  dropPkByQueue
attr title  "packets dropped by queue, sum(packetBytes)"
scalar scenarioPRJP1.node[1].wlan.mac 	"number of received packets" 	3034
scalar scenarioPRJP1.node[1].wlan.mac 	"number of collisions" 	131992
scalar scenarioPRJP1.node[1].wlan.mac 	"number of internal collisions" 	0
scalar scenarioPRJP1.node[1].wlan.mac 	"number of retry for AC 0" 	14544
scalar scenarioPRJP1.node[1].wlan.mac 	"number of retry for AC 1" 	6
scalar scenarioPRJP1.node[1].wlan.mac 	"number of retry for AC 2" 	0
scalar scenarioPRJP1.node[1].wlan.mac 	"number of retry for AC 3" 	0
scalar scenarioPRJP1.node[1].wlan.mac 	"sent and received bits" 	47221136
scalar scenarioPRJP1.node[1].wlan.mac 	"sent packet within AC 0" 	1979
scalar scenarioPRJP1.node[1].wlan.mac 	"sent packet within AC 1" 	2
scalar scenarioPRJP1.node[1].wlan.mac 	"sent packet within AC 2" 	0
scalar scenarioPRJP1.node[1].wlan.mac 	"sent packet within AC 3" 	0
scalar scenarioPRJP1.node[1].wlan.mac 	"sent in TXOP " 	0
scalar scenarioPRJP1.node[1].wlan.mac 	"sentWithoutRetry AC 0" 	1322
scalar scenarioPRJP1.node[1].wlan.mac 	"sentWithoutRetry AC 1" 	2
scalar scenarioPRJP1.node[1].wlan.mac 	"sentWithoutRetry AC 2" 	0
scalar scenarioPRJP1.node[1].wlan.mac 	"sentWithoutRetry AC 3" 	0
scalar scenarioPRJP1.node[1].wlan.mac 	"numGivenUp AC 0" 	2156
scalar scenarioPRJP1.node[1].wlan.mac 	"numGivenUp AC 1" 	1
scalar scenarioPRJP1.node[1].wlan.mac 	"numGivenUp AC 2" 	0
scalar scenarioPRJP1.node[1].wlan.mac 	"numGivenUp AC 3" 	0
scalar scenarioPRJP1.node[1].wlan.mac 	"numDropped AC 0" 	0
scalar scenarioPRJP1.node[1].wlan.mac 	"numDropped AC 1" 	0
scalar scenarioPRJP1.node[1].wlan.mac 	"numDropped AC 2" 	0
scalar scenarioPRJP1.node[1].wlan.mac 	"numDropped AC 3" 	0
scalar scenarioPRJP1.node[1].wlan.mac 	rcvdPkFromLL:count 	276271
attr interpolationmode  none
attr source  packetReceivedFromLower
attr title  "packets received from lower layer, count"
scalar scenarioPRJP1.node[1].wlan.mac 	rcvdPkFromLL:sum(packetBytes) 	111358063
attr interpolationmode  none
attr source  packetReceivedFromLower
attr title  "packets received from lower layer, sum(packetBytes)"
scalar scenarioPRJP1.node[1].wlan.mac 	sentDownPk:count 	37694
attr interpolationmode  none
attr source  packetSentToLower
attr title  "packets sent to lower layer, count"
scalar scenarioPRJP1.node[1].wlan.mac 	sentDownPk:sum(packetBytes) 	15205303
attr interpolationmode  none
attr source  packetSentToLower
attr title  "packets sent to lower layer, sum(packetBytes)"
scalar scenarioPRJP1.node[1].wlan.mac 	rcvdPkFromHL:count 	20110
attr interpolationmode  none
attr source  packetReceivedFromUpper
attr title  "packets received from higher layer, count"
scalar scenarioPRJP1.node[1].wlan.mac 	rcvdPkFromHL:sum(packetBytes) 	7096797
attr interpolationmode  none
attr source  packetReceivedFromUpper
attr title  "packets received from higher layer, sum(packetBytes)"
scalar scenarioPRJP1.node[1].wlan.mac 	passedUpPk:count 	62190
attr interpolationmode  none
attr source  packetSentToUpper
attr title  "packets passed to higher layer, count"
scalar scenarioPRJP1.node[1].wlan.mac 	passedUpPk:sum(packetBytes) 	19191867
attr interpolationmode  none
attr source  packetSentToUpper
attr title  "packets passed to higher layer, sum(packetBytes)"
[...]
attr title  "packets received from higher layer, sum(packetBytes)"
scalar scenarioPRJP1.node[76].wlan.mac 	passedUpPk:count 	50212
attr interpolationmode  none
attr source  packetSentToUpper
attr title  "packets passed to higher layer, count"
scalar scenarioPRJP1.node[76].wlan.mac 	passedUpPk:sum(packetBytes) 	15948936
attr interpolationmode  none
attr source  packetSentToUpper
attr title  "packets passed to higher layer, sum(packetBytes)"
statistic scenarioPRJP1.node[76].wlan.radio 	radioChannel:histogram
field count 1
field mean 3
field stddev nan
field sum 3
field sqrsum 9
field min 3
field max 3
attr interpolationmode  sample-hold
attr source  radioChannelChanged
attr title  "Radio channel, histogram"
bin	-INF	0
bin	2	0
bin	3	1
bin	4	0
scalar scenarioPRJP1.node[76].wlan.radio 	transmissionState:count 	154000
attr interpolationmode  sample-hold
attr source  transmissionStateChanged
attr title  "Radio transmission state, count"
scalar scenarioPRJP1.node[76].wlan.radio 	receptionState:count 	623171
attr interpolationmode  sample-hold
attr source  receptionStateChanged
attr title  "Radio reception state, count"
scalar scenarioPRJP1.node[76].wlan.radio 	radioMode:count 	77002
attr interpolationmode  sample-hold
attr source  radioModeChanged
attr title  "Radio mode, count"
statistic scenarioPRJP1.node[76].wlan.radio 	symbolErrorRate:histogram
field count 0
field mean nan
field stddev nan
field sum 0
field sqrsum 0
field min nan
field max nan
attr source  symbolErrorRate
attr title  "Symbol error rate, histogram"
bin	-INF	0
bin	-0.5	0
bin	-0.46666666666667	0
bin	-0.43333333333333	0
bin	-0.4	0
bin	-0.36666666666667	0
bin	-0.33333333333333	0
bin	-0.3	0
bin	-0.26666666666667	0
bin	-0.23333333333333	0
bin	-0.2	0
bin	-0.16666666666667	0
bin	-0.13333333333333	0
bin	-0.1	0
bin	-0.066666666666667	0
bin	-0.033333333333333	0
bin	0	0
bin	0.033333333333333	0
bin	0.066666666666667	0
bin	0.1	0
bin	0.13333333333333	0
bin	0.16666666666667	0
bin	0.2	0
bin	0.23333333333333	0
bin	0.26666666666667	0
bin	0.3	0
bin	0.33333333333333	0
bin	0.36666666666667	0
bin	0.4	0
bin	0.43333333333333	0
bin	0.46666666666667	0
bin	0.5	0
statistic scenarioPRJP1.node[76].wlan.radio 	bitErrorRate:histogram
field count 0
field mean nan
field stddev nan
field sum 0
field sqrsum 0
field min nan
field max nan
attr source  bitErrorRate
attr title  "Bit error rate, histogram"
bin	-INF	0
bin	-0.5	0
bin	-0.46666666666667	0
bin	-0.43333333333333	0
bin	-0.4	0
bin	-0.36666666666667	0
bin	-0.33333333333333	0
bin	-0.3	0
bin	-0.26666666666667	0
bin	-0.23333333333333	0
bin	-0.2	0
bin	-0.16666666666667	0
bin	-0.13333333333333	0
bin	-0.1	0
bin	-0.066666666666667	0
bin	-0.033333333333333	0
bin	0	0
bin	0.033333333333333	0
bin	0.066666666666667	0
bin	0.1	0
bin	0.13333333333333	0
bin	0.16666666666667	0
bin	0.2	0
bin	0.23333333333333	0
bin	0.26666666666667	0
bin	0.3	0
bin	0.33333333333333	0
bin	0.36666666666667	0
bin	0.4	0
bin	0.43333333333333	0
bin	0.46666666666667	0
bin	0.5	0
statistic scenarioPRJP1.node[76].wlan.radio 	packetErrorRate:histogram
field count 234577
field mean 0.47238443161773
field stddev 0.48926360952035
field sum 110810.52281559
field sqrsum 108497.70589876
field min 0
field max 1
attr source  packetErrorRate
attr title  "Packet error rate, histogram"
bin	-INF	0
bin	-0.5	0
bin	-0.43333333333333	0
bin	-0.36666666666667	0
bin	-0.3	0
bin	-0.23333333333333	0
bin	-0.16666666666667	0
bin	-0.1	0
bin	-0.033333333333333	114631
bin	0.033333333333333	3483
bin	0.1	1774
bin	0.16666666666667	1285
bin	0.23333333333333	1001
bin	0.3	817
bin	0.36666666666667	732
bin	0.43333333333333	715
bin	0.5	619
bin	0.56666666666667	602
bin	0.63333333333333	621
bin	0.7	687
bin	0.76666666666667	756
bin	0.83333333333333	823
bin	0.9	1270
bin	0.96666666666667	104761
bin	1.0333333333333	0
bin	1.1	0
bin	1.1666666666667	0
bin	1.2333333333333	0
bin	1.3	0
bin	1.3666666666667	0
bin	1.4333333333333	0
bin	1.5	0
statistic scenarioPRJP1.node[76].wlan.radio 	minSNIR:histogram
field count 234577
field mean 392.07058028072
field stddev 7722.6126833941
field sum 91970740.51051
field sqrsum 14025877657582
field min 7.5021251809172e-05
field max 1003909.5118545
attr source  minSNIR
attr title  "Min SNIR, histogram"
bin	-INF	0
bin	-24236.060798505	0
bin	-21004.511526921	0
bin	-17772.962255337	0
bin	-14541.412983752	0
bin	-11309.863712168	0
bin	-8078.3144405838	0
bin	-4846.7651689995	0
bin	-1615.2158974153	229403
bin	1616.333374169	3206
bin	4847.8826457533	713
bin	8079.4319173375	288
bin	11310.981188922	182
bin	14542.530460506	111
bin	17774.07973209	72
bin	21005.629003675	67
bin	24237.178275259	53
bin	27468.727546843	36
bin	30700.276818427	37
bin	33931.826090012	24
bin	37163.375361596	28
bin	40394.92463318	22
bin	43626.473904764	15
bin	46858.023176349	16
bin	50089.572447933	19
bin	53321.121719517	9
bin	56552.670991101	15
bin	59784.220262686	12
bin	63015.76953427	13
bin	66247.318805854	7
bin	69478.868077438	14
bin	72710.417349023	215
scalar scenarioPRJP1.node[76].lo0.lo 	droppedPkBitError:count 	0
attr interpolationmode  none
attr source  dropPkBitError
attr title  "packets dropped/bit error, count"
scalar scenarioPRJP1.node[76].lo0.lo 	droppedPkBitError:sum(packetBytes) 	0
attr interpolationmode  none
attr source  dropPkBitError
attr title  "packets dropped/bit error, sum(packetBytes)"
scalar scenarioPRJP1.node[76].lo0.lo 	rcvdPkFromHL:count 	0
attr interpolationmode  none
attr source  packetReceivedFromUpper
attr title  "packets received from higher layer, count"
scalar scenarioPRJP1.node[76].lo0.lo 	rcvdPkFromHL:sum(packetBytes) 	0
attr interpolationmode  none
attr source  packetReceivedFromUpper
attr title  "packets received from higher layer, sum(packetBytes)"
scalar scenarioPRJP1.node[76].lo0.lo 	passedUpPk:count 	0
attr interpolationmode  none
attr source  packetSentToUpper
attr title  "packets passed to higher layer, count"
scalar scenarioPRJP1.node[76].lo0.lo 	passedUpPk:sum(packetBytes) 	0
attr interpolationmode  none
attr source  packetSentToUpper
attr title  "packets passed to higher layer, sum(packetBytes)"
scalar scenarioPRJP1.node[99].app 	"Total sent" 	2624
scalar scenarioPRJP1.node[99].app 	"Total received" 	143
scalar scenarioPRJP1.node[99].app 	"Total deleted" 	0
scalar scenarioPRJP1.node[99].app 	dropPk:count 	0
attr interpolationmode  none
attr source  dropPk
attr title  "packets dropped, count"
scalar scenarioPRJP1.node[99].app 	dropPk:sum(packetBytes) 	0
attr interpolationmode  none
attr source  dropPk
attr title  "packets dropped, sum(packetBytes)"
scalar scenarioPRJP1.node[99].app 	outOfOrderPk:count 	0
attr interpolationmode  none
attr source  outOfOrderPk
attr title  "packets received out of order, count"
scalar scenarioPRJP1.node[99].app 	outOfOrderPk:sum(packetBytes) 	0
attr interpolationmode  none
attr source  outOfOrderPk
attr title  "packets received out of order, sum(packetBytes)"
scalar scenarioPRJP1.node[99].app 	rcvdPk:count 	143
attr interpolationmode  none
attr source  rcvdPk
attr title  "packets received, count"
scalar scenarioPRJP1.node[99].app 	rcvdPk:sum(packetBytes) 	73216
attr interpolationmode  none
attr source  rcvdPk
attr title  "packets received, sum(packetBytes)"
statistic scenarioPRJP1.node[99].app 	endToEndDelay:histogram
field count 143
field mean 0.56030127995675
field stddev 1.9121582083975
field sum 80.123083033815
field sqrsum 564.09462595767
field min 0.000945068833
field max 16.799730344147
attr interpolationmode  none
attr source  messageAge(rcvdPk)
attr title  "delay, histogram"
attr unit  s
bin	-INF	0
bin	-8.398447568824	0
bin	-7.2785285504697	0
bin	-6.1586095321155	0
bin	-5.0386905137612	0
bin	-3.9187714954069	0
bin	-2.7988524770527	0
bin	-1.6789334586984	0
bin	-0.55901444034413	122
bin	0.56090457801013	6
bin	1.6808235963644	6
bin	2.8007426147187	4
bin	3.9206616330729	2
bin	5.0405806514272	1
bin	6.1604996697815	0
bin	7.2804186881357	0
bin	8.40033770649	0
bin	9.5202567248443	0
bin	10.640175743199	1
bin	11.760094761553	0
bin	12.880013779907	0
bin	13.999932798261	0
bin	15.119851816616	0
bin	16.23977083497	1
bin	17.359689853324	0
bin	18.479608871678	0
bin	19.599527890033	0
bin	20.719446908387	0
bin	21.839365926741	0
bin	22.959284945095	0
bin	24.07920396345	0
bin	25.199122981804	0
scalar scenarioPRJP1.node[99].app 	sentPk:count 	2624
attr interpolationmode  none
attr source  sentPk
attr title  "packets sent, count"
scalar scenarioPRJP1.node[99].app 	sentPk:sum(packetBytes) 	1343488
attr interpolationmode  none
attr source  sentPk
attr title  "packets sent, sum(packetBytes)"
scalar scenarioPRJP1.node[99].udp 	droppedPkBadChecksum:count 	0
attr interpolationmode  none
attr title  "packets dropped (checksum error), count"
scalar scenarioPRJP1.node[99].udp 	droppedPkWrongPort:count 	0
attr interpolationmode  none
attr title  "packets dropped (wrong port), count"
scalar scenarioPRJP1.node[99].udp 	passedUpPk:count 	143
attr interpolationmode  none
attr title  "packets passed up, count"
scalar scenarioPRJP1.node[99].udp 	rcvdPk:count 	143
attr interpolationmode  none
attr source  rcvdPk
attr title  "packets received, count"
scalar scenarioPRJP1.node[99].udp 	rcvdPk:sum(packetBytes) 	74360
attr interpolationmode  none
attr source  rcvdPk
attr title  "packets received, sum(packetBytes)"
scalar scenarioPRJP1.node[99].udp 	sentPk:count 	2624
attr interpolationmode  none
attr source  sentPk
attr title  "packets sent, count"
scalar scenarioPRJP1.node[99].udp 	sentPk:sum(packetBytes) 	1364480
attr interpolationmode  none
attr source  sentPk
attr title  "packets sent, sum(packetBytes)"
scalar scenarioPRJP1.node[99].networkLayer.arp 	failedARPResolution:count 	256
attr title  "ARP failed resolutions, count"
scalar scenarioPRJP1.node[99].networkLayer.arp 	completedARPResolution:count 	4026
attr title  "ARP completed resolutions, count"
scalar scenarioPRJP1.node[99].networkLayer.arp 	initiatedARPResolution:count 	365
attr title  "ARP initiated resolutions, count"
scalar scenarioPRJP1.node[99].networkLayer.arp 	sentReply:count 	71
attr title  "ARP replies sent, count"
scalar scenarioPRJP1.node[99].networkLayer.arp 	sentReq:count 	969
attr title  "ARP request sent, count"
scalar scenarioPRJP1.node[99].mobility 	startTime 	9.8
scalar scenarioPRJP1.node[99].mobility 	totalTime 	940.2
scalar scenarioPRJP1.node[99].mobility 	stopTime 	950
scalar scenarioPRJP1.node[99].mobility 	minSpeed 	2.4755907898817e-13
scalar scenarioPRJP1.node[99].mobility 	maxSpeed 	21.671981669346
scalar scenarioPRJP1.node[99].mobility 	totalDistance 	11157.11520335
scalar scenarioPRJP1.node[99].mobility 	totalCO2Emission 	3048.7601561799
scalar scenarioPRJP1.node[99].wlan.mgmt 	dataQueueLen:max 	12
attr interpolationmode  sample-hold
attr title  "data queue length, max"
scalar scenarioPRJP1.node[99].wlan.mgmt 	dataQueueLen:timeavg 	0
attr interpolationmode  sample-hold
attr title  "data queue length, timeavg"
scalar scenarioPRJP1.node[99].wlan.mgmt 	dropPkByQueue:count 	0
attr interpolationmode  none
attr source  dropPkByQueue
attr title  "packets dropped by queue, count"
scalar scenarioPRJP1.node[99].wlan.mgmt 	dropPkByQueue:sum(packetBytes) 	0
attr interpolationmode  none
attr source  dropPkByQueue
attr title  "packets dropped by queue, sum(packetBytes)"
scalar scenarioPRJP1.node[99].wlan.mac 	"number of received packets" 	3090
scalar scenarioPRJP1.node[99].wlan.mac 	"number of collisions" 	130181
scalar scenarioPRJP1.node[99].wlan.mac 	"number of internal collisions" 	0
scalar scenarioPRJP1.node[99].wlan.mac 	"number of retry for AC 0" 	16602
scalar scenarioPRJP1.node[99].wlan.mac 	"number of retry for AC 1" 	0
scalar scenarioPRJP1.node[99].wlan.mac 	"number of retry for AC 2" 	0
scalar scenarioPRJP1.node[99].wlan.mac 	"number of retry for AC 3" 	0
scalar scenarioPRJP1.node[99].wlan.mac 	"sent and received bits" 	46521296
scalar scenarioPRJP1.node[99].wlan.mac 	"sent packet within AC 0" 	1875
scalar scenarioPRJP1.node[99].wlan.mac 	"sent packet within AC 1" 	0
scalar scenarioPRJP1.node[99].wlan.mac 	"sent packet within AC 2" 	0
scalar scenarioPRJP1.node[99].wlan.mac 	"sent packet within AC 3" 	0
scalar scenarioPRJP1.node[99].wlan.mac 	"sent in TXOP " 	0
scalar scenarioPRJP1.node[99].wlan.mac 	"sentWithoutRetry AC 0" 	1242
scalar scenarioPRJP1.node[99].wlan.mac 	"sentWithoutRetry AC 1" 	0
scalar scenarioPRJP1.node[99].wlan.mac 	"sentWithoutRetry AC 2" 	0
scalar scenarioPRJP1.node[99].wlan.mac 	"sentWithoutRetry AC 3" 	0
scalar scenarioPRJP1.node[99].wlan.mac 	"numGivenUp AC 0" 	2512
scalar scenarioPRJP1.node[99].wlan.mac 	"numGivenUp AC 1" 	0
scalar scenarioPRJP1.node[99].wlan.mac 	"numGivenUp AC 2" 	0
scalar scenarioPRJP1.node[99].wlan.mac 	"numGivenUp AC 3" 	0
scalar scenarioPRJP1.node[99].wlan.mac 	"numDropped AC 0" 	0
scalar scenarioPRJP1.node[99].wlan.mac 	"numDropped AC 1" 	0
scalar scenarioPRJP1.node[99].wlan.mac 	"numDropped AC 2" 	0
scalar scenarioPRJP1.node[99].wlan.mac 	"numDropped AC 3" 	0
scalar scenarioPRJP1.node[99].wlan.mac 	rcvdPkFromLL:count 	254809
attr interpolationmode  none
attr source  packetReceivedFromLower
attr title  "packets received from lower layer, count"
scalar scenarioPRJP1.node[99].wlan.mac 	rcvdPkFromLL:sum(packetBytes) 	103388655
attr interpolationmode  none
attr source  packetReceivedFromLower
attr title  "packets received from lower layer, sum(packetBytes)"
scalar scenarioPRJP1.node[99].wlan.mac 	sentDownPk:count 	39524
attr interpolationmode  none
attr source  packetSentToLower
attr title  "packets sent to lower layer, count"
scalar scenarioPRJP1.node[99].wlan.mac 	sentDownPk:sum(packetBytes) 	16438043
attr interpolationmode  none
attr source  packetSentToLower
attr title  "packets sent to lower layer, sum(packetBytes)"
scalar scenarioPRJP1.node[99].wlan.mac 	rcvdPkFromHL:count 	19833
attr interpolationmode  none
attr source  packetReceivedFromUpper
attr title  "packets received from higher layer, count"
scalar scenarioPRJP1.node[99].wlan.mac 	rcvdPkFromHL:sum(packetBytes) 	7205194
attr interpolationmode  none
attr source  packetReceivedFromUpper
attr title  "packets received from higher layer, sum(packetBytes)"
scalar scenarioPRJP1.node[99].wlan.mac 	passedUpPk:count 	53955
attr interpolationmode  none
attr source  packetSentToUpper
attr title  "packets passed to higher layer, count"
scalar scenarioPRJP1.node[99].wlan.mac 	passedUpPk:sum(packetBytes) 	16877045
attr interpolationmode  none
attr source  packetSentToUpper
attr title  "packets passed to higher layer, sum(packetBytes)"
statistic scenarioPRJP1.node[99].wlan.radio 	radioChannel:histogram
field count 1
field mean 3
field stddev nan
field sum 3
field sqrsum 9
field min 3
field max 3
attr interpolationmode  sample-hold
attr source  radioChannelChanged
attr title  "Radio channel, histogram"
bin	-INF	0
bin	2	0
bin	3	1
bin	4	0
scalar scenarioPRJP1.node[99].wlan.radio 	transmissionState:count 	158096
attr interpolationmode  sample-hold
attr source  transmissionStateChanged
attr title  "Radio transmission state, count"
scalar scenarioPRJP1.node[99].wlan.radio 	receptionState:count 	676476
attr interpolationmode  sample-hold
attr source  receptionStateChanged
attr title  "Radio reception state, count"
scalar scenarioPRJP1.node[99].wlan.radio 	radioMode:count 	79050
attr interpolationmode  sample-hold
attr source  radioModeChanged
attr title  "Radio mode, count"
statistic scenarioPRJP1.node[99].wlan.radio 	symbolErrorRate:histogram
field count 0
field mean nan
field stddev nan
field sum 0
field sqrsum 0
field min nan
field max nan
attr source  symbolErrorRate
attr title  "Symbol error rate, histogram"
bin	-INF	0
bin	-0.5	0
bin	-0.46666666666667	0
bin	-0.43333333333333	0
bin	-0.4	0
bin	-0.36666666666667	0
bin	-0.33333333333333	0
bin	-0.3	0
bin	-0.26666666666667	0
bin	-0.23333333333333	0
bin	-0.2	0
bin	-0.16666666666667	0
bin	-0.13333333333333	0
bin	-0.1	0
bin	-0.066666666666667	0
bin	-0.033333333333333	0
bin	0	0
bin	0.033333333333333	0
bin	0.066666666666667	0
bin	0.1	0
bin	0.13333333333333	0
bin	0.16666666666667	0
bin	0.2	0
bin	0.23333333333333	0
bin	0.26666666666667	0
bin	0.3	0
bin	0.33333333333333	0
bin	0.36666666666667	0
bin	0.4	0
bin	0.43333333333333	0
bin	0.46666666666667	0
bin	0.5	0
statistic scenarioPRJP1.node[99].wlan.radio 	bitErrorRate:histogram
field count 0
field mean nan
field stddev nan
field sum 0
field sqrsum 0
field min nan
field max nan
attr source  bitErrorRate
attr title  "Bit error rate, histogram"
bin	-INF	0
bin	-0.5	0
bin	-0.46666666666667	0
bin	-0.43333333333333	0
bin	-0.4	0
bin	-0.36666666666667	0
bin	-0.33333333333333	0
bin	-0.3	0
bin	-0.26666666666667	0
bin	-0.23333333333333	0
bin	-0.2	0
bin	-0.16666666666667	0
bin	-0.13333333333333	0
bin	-0.1	0
bin	-0.066666666666667	0
bin	-0.033333333333333	0
bin	0	0
bin	0.033333333333333	0
bin	0.066666666666667	0
bin	0.1	0
bin	0.13333333333333	0
bin	0.16666666666667	0
bin	0.2	0
bin	0.23333333333333	0
bin	0.26666666666667	0
bin	0.3	0
bin	0.33333333333333	0
bin	0.36666666666667	0
bin	0.4	0
bin	0.43333333333333	0
bin	0.46666666666667	0
bin	0.5	0
statistic scenarioPRJP1.node[99].wlan.radio 	packetErrorRate:histogram
field count 254809
field mean 0.48080784323364
field stddev 0.49005766177544
field sum 122514.16572652
field sqrsum 120099.57226379
field min 0
field max 1
attr source  packetErrorRate
attr title  "Packet error rate, histogram"
bin	-INF	0
bin	-0.5	0
bin	-0.43333333333333	0
bin	-0.36666666666667	0
bin	-0.3	0
bin	-0.23333333333333	0
bin	-0.16666666666667	0
bin	-0.1	0
bin	-0.033333333333333	122672
bin	0.033333333333333	3761
bin	0.1	1861
bin	0.16666666666667	1272
bin	0.23333333333333	1047
bin	0.3	868
bin	0.36666666666667	820
bin	0.43333333333333	729
bin	0.5	662
bin	0.56666666666667	645
bin	0.63333333333333	630
bin	0.7	632
bin	0.76666666666667	709
bin	0.83333333333333	959
bin	0.9	1389
bin	0.96666666666667	116153
bin	1.0333333333333	0
bin	1.1	0
bin	1.1666666666667	0
bin	1.2333333333333	0
bin	1.3	0
bin	1.3666666666667	0
bin	1.4333333333333	0
bin	1.5	0
statistic scenarioPRJP1.node[99].wlan.radio 	minSNIR:histogram
field count 254809
field mean 254.58454548775
field stddev 4797.1494920563
field sum 64870433.451188
field sqrsum 5880320610841.7
field min 0.00011173838005879
field max 737475.25178904
attr source  minSNIR
attr title  "Min SNIR, histogram"
bin	-INF	0
bin	-105187.55210087	0
bin	-91162.540798421	0
bin	-77137.529495976	0
bin	-63112.51819353	0
bin	-49087.506891085	0
bin	-35062.495588639	0
bin	-21037.484286194	0
bin	-7012.4729837485	253574
bin	7012.538318697	762
bin	21037.549621142	169
bin	35062.560923588	79
bin	49087.572226033	60
bin	63112.583528479	40
bin	77137.594830924	26
bin	91162.60613337	11
bin	105187.61743582	10
bin	119212.62873826	12
bin	133237.64004071	10
bin	147262.65134315	6
bin	161287.6626456	7
bin	175312.67394804	7
bin	189337.68525049	5
bin	203362.69655293	4
bin	217387.70785538	2
bin	231412.71915782	1
bin	245437.73046027	5
bin	259462.74176271	5
bin	273487.75306516	1
bin	287512.76436761	2
bin	301537.77567005	0
bin	315562.7869725	11
scalar scenarioPRJP1.node[99].lo0.lo 	droppedPkBitError:count 	0
attr interpolationmode  none
attr source  dropPkBitError
attr title  "packets dropped/bit error, count"
scalar scenarioPRJP1.node[99].lo0.lo 	droppedPkBitError:sum(packetBytes) 	0
attr interpolationmode  none
attr source  dropPkBitError
attr title  "packets dropped/bit error, sum(packetBytes)"
scalar scenarioPRJP1.node[99].lo0.lo 	rcvdPkFromHL:count 	0
attr interpolationmode  none
attr source  packetReceivedFromUpper
attr title  "packets received from higher layer, count"
scalar scenarioPRJP1.node[99].lo0.lo 	rcvdPkFromHL:sum(packetBytes) 	0
attr interpolationmode  none
attr source  packetReceivedFromUpper
attr title  "packets received from higher layer, sum(packetBytes)"
scalar scenarioPRJP1.node[99].lo0.lo 	passedUpPk:count 	0
attr interpolationmode  none
attr source  packetSentToUpper
attr title  "packets passed to higher layer, count"
scalar scenarioPRJP1.node[99].lo0.lo 	passedUpPk:sum(packetBytes) 	0
attr interpolationmode  none
attr source  packetSentToUpper
attr title  "packets passed to higher layer, sum(packetBytes)"
