version 2
run DYMOUM-LNS-100n-5-20150806-18:03:34-18872
attr configname DYMOUM-LNS-100n
attr datetime 20150806-18:03:34
attr experiment DYMOUM-LNS-100n
attr inifile omnetpp.ini
attr iterationvars ""
attr iterationvars2 $repetition=5
attr measurement ""
attr network Prj_Part1_propag.scenarioPRJP1
attr processid 18872
attr repetition 5
attr replication #5
attr resultdir results
attr runnumber 5
attr seedset 5

scalar scenarioPRJP1.node[47].app 	"Total sent" 	367
scalar scenarioPRJP1.node[47].app 	"Total received" 	23
scalar scenarioPRJP1.node[47].app 	"Total deleted" 	0
scalar scenarioPRJP1.node[47].app 	dropPk:count 	0
attr interpolationmode  none
attr source  dropPk
attr title  "packets dropped, count"
scalar scenarioPRJP1.node[47].app 	dropPk:sum(packetBytes) 	0
attr interpolationmode  none
attr source  dropPk
attr title  "packets dropped, sum(packetBytes)"
scalar scenarioPRJP1.node[47].app 	outOfOrderPk:count 	0
attr interpolationmode  none
attr source  outOfOrderPk
attr title  "packets received out of order, count"
scalar scenarioPRJP1.node[47].app 	outOfOrderPk:sum(packetBytes) 	0
attr interpolationmode  none
attr source  outOfOrderPk
attr title  "packets received out of order, sum(packetBytes)"
scalar scenarioPRJP1.node[47].app 	rcvdPk:count 	23
attr interpolationmode  none
attr source  rcvdPk
attr title  "packets received, count"
scalar scenarioPRJP1.node[47].app 	rcvdPk:sum(packetBytes) 	11776
attr interpolationmode  none
attr source  rcvdPk
attr title  "packets received, sum(packetBytes)"
statistic scenarioPRJP1.node[47].app 	endToEndDelay:histogram
field count 23
field mean 0.96620225806257
field stddev 2.2368441878571
field sum 22.222651935439
field sqrsum 131.54795873666
field min 0.00094501103
field max 9.191530836637
attr interpolationmode  none
attr source  messageAge(rcvdPk)
attr title  "delay, histogram"
attr unit  s
bin	-INF	0
bin	-4.5943479017735	0
bin	-3.9816421800664	0
bin	-3.3689364583592	0
bin	-2.7562307366521	0
bin	-2.143525014945	0
bin	-1.5308192932378	0
bin	-0.9181135715307	0
bin	-0.30540784982357	17
bin	0.30729787188357	1
bin	0.9200035935907	1
bin	1.5327093152978	0
bin	2.145415037005	1
bin	2.7581207587121	0
bin	3.3708264804192	1
bin	3.9835322021264	0
bin	4.5962379238335	0
bin	5.2089436455406	1
bin	5.8216493672478	0
bin	6.4343550889549	0
bin	7.047060810662	0
bin	7.6597665323692	0
bin	8.2724722540763	0
bin	8.8851779757834	1
bin	9.4978836974906	0
bin	10.110589419198	0
bin	10.723295140905	0
bin	11.336000862612	0
bin	11.948706584319	0
bin	12.561412306026	0
bin	13.174118027733	0
bin	13.786823749441	0
scalar scenarioPRJP1.node[47].app 	sentPk:count 	367
attr interpolationmode  none
attr source  sentPk
attr title  "packets sent, count"
scalar scenarioPRJP1.node[47].app 	sentPk:sum(packetBytes) 	187904
attr interpolationmode  none
attr source  sentPk
attr title  "packets sent, sum(packetBytes)"
scalar scenarioPRJP1.node[47].udp 	droppedPkBadChecksum:count 	0
attr interpolationmode  none
attr title  "packets dropped (checksum error), count"
scalar scenarioPRJP1.node[47].udp 	droppedPkWrongPort:count 	0
attr interpolationmode  none
attr title  "packets dropped (wrong port), count"
scalar scenarioPRJP1.node[47].udp 	passedUpPk:count 	23
attr interpolationmode  none
attr title  "packets passed up, count"
scalar scenarioPRJP1.node[47].udp 	rcvdPk:count 	23
attr interpolationmode  none
attr source  rcvdPk
attr title  "packets received, count"
scalar scenarioPRJP1.node[47].udp 	rcvdPk:sum(packetBytes) 	11960
attr interpolationmode  none
attr source  rcvdPk
attr title  "packets received, sum(packetBytes)"
scalar scenarioPRJP1.node[47].udp 	sentPk:count 	367
attr interpolationmode  none
attr source  sentPk
attr title  "packets sent, count"
scalar scenarioPRJP1.node[47].udp 	sentPk:sum(packetBytes) 	190840
attr interpolationmode  none
attr source  sentPk
attr title  "packets sent, sum(packetBytes)"
scalar scenarioPRJP1.node[47].networkLayer.arp 	failedARPResolution:count 	38
attr title  "ARP failed resolutions, count"
scalar scenarioPRJP1.node[47].networkLayer.arp 	completedARPResolution:count 	741
attr title  "ARP completed resolutions, count"
scalar scenarioPRJP1.node[47].networkLayer.arp 	initiatedARPResolution:count 	62
attr title  "ARP initiated resolutions, count"
scalar scenarioPRJP1.node[47].networkLayer.arp 	sentReply:count 	11
attr title  "ARP replies sent, count"
scalar scenarioPRJP1.node[47].networkLayer.arp 	sentReq:count 	158
attr title  "ARP request sent, count"
scalar scenarioPRJP1.node[47].manetrouting 	"simulated time" 	158.7
scalar scenarioPRJP1.node[47].manetrouting 	"Dymo totalSend " 	471190
scalar scenarioPRJP1.node[47].manetrouting 	"Dymo Rreq send" 	248515
scalar scenarioPRJP1.node[47].manetrouting 	"Dymo Rreq rec" 	224614
scalar scenarioPRJP1.node[47].manetrouting 	"Dymo Rrep send" 	2493
scalar scenarioPRJP1.node[47].manetrouting 	"Dymo Rrep rec" 	1201
scalar scenarioPRJP1.node[47].manetrouting 	"Dymo Rerr send" 	1537
scalar scenarioPRJP1.node[47].manetrouting 	"Dymo Rerr rec" 	7445
scalar scenarioPRJP1.node[47].mobility 	startTime 	4.9
scalar scenarioPRJP1.node[47].mobility 	totalTime 	153.7
scalar scenarioPRJP1.node[47].mobility 	stopTime 	158.7
scalar scenarioPRJP1.node[47].mobility 	minSpeed 	2.4759260805928e-13
scalar scenarioPRJP1.node[47].mobility 	maxSpeed 	19.56167249778
scalar scenarioPRJP1.node[47].mobility 	totalDistance 	1483.8900994092
scalar scenarioPRJP1.node[47].mobility 	totalCO2Emission 	479.94272648963
scalar scenarioPRJP1.node[47].wlan.mgmt 	dataQueueLen:max 	4
attr interpolationmode  sample-hold
attr title  "data queue length, max"
scalar scenarioPRJP1.node[47].wlan.mgmt 	dataQueueLen:timeavg 	0
attr interpolationmode  sample-hold
attr title  "data queue length, timeavg"
scalar scenarioPRJP1.node[47].wlan.mgmt 	dropPkByQueue:count 	0
attr interpolationmode  none
attr source  dropPkByQueue
attr title  "packets dropped by queue, count"
scalar scenarioPRJP1.node[47].wlan.mgmt 	dropPkByQueue:sum(packetBytes) 	0
attr interpolationmode  none
attr source  dropPkByQueue
attr title  "packets dropped by queue, sum(packetBytes)"
scalar scenarioPRJP1.node[47].wlan.mac 	"number of received packets" 	441
scalar scenarioPRJP1.node[47].wlan.mac 	"number of collisions" 	14926
scalar scenarioPRJP1.node[47].wlan.mac 	"number of internal collisions" 	0
scalar scenarioPRJP1.node[47].wlan.mac 	"number of retry for AC 0" 	2117
scalar scenarioPRJP1.node[47].wlan.mac 	"number of retry for AC 1" 	0
scalar scenarioPRJP1.node[47].wlan.mac 	"number of retry for AC 2" 	0
scalar scenarioPRJP1.node[47].wlan.mac 	"number of retry for AC 3" 	0
scalar scenarioPRJP1.node[47].wlan.mac 	"sent and received bits" 	6798864
scalar scenarioPRJP1.node[47].wlan.mac 	"sent packet within AC 0" 	247
scalar scenarioPRJP1.node[47].wlan.mac 	"sent packet within AC 1" 	1
scalar scenarioPRJP1.node[47].wlan.mac 	"sent packet within AC 2" 	0
scalar scenarioPRJP1.node[47].wlan.mac 	"sent packet within AC 3" 	0
scalar scenarioPRJP1.node[47].wlan.mac 	"sent in TXOP " 	0
scalar scenarioPRJP1.node[47].wlan.mac 	"sentWithoutRetry AC 0" 	151
scalar scenarioPRJP1.node[47].wlan.mac 	"sentWithoutRetry AC 1" 	1
scalar scenarioPRJP1.node[47].wlan.mac 	"sentWithoutRetry AC 2" 	0
scalar scenarioPRJP1.node[47].wlan.mac 	"sentWithoutRetry AC 3" 	0
scalar scenarioPRJP1.node[47].wlan.mac 	"numGivenUp AC 0" 	312
scalar scenarioPRJP1.node[47].wlan.mac 	"numGivenUp AC 1" 	0
scalar scenarioPRJP1.node[47].wlan.mac 	"numGivenUp AC 2" 	0
scalar scenarioPRJP1.node[47].wlan.mac 	"numGivenUp AC 3" 	0
scalar scenarioPRJP1.node[47].wlan.mac 	"numDropped AC 0" 	0
scalar scenarioPRJP1.node[47].wlan.mac 	"numDropped AC 1" 	0
scalar scenarioPRJP1.node[47].wlan.mac 	"numDropped AC 2" 	0
scalar scenarioPRJP1.node[47].wlan.mac 	"numDropped AC 3" 	0
scalar scenarioPRJP1.node[47].wlan.mac 	rcvdPkFromLL:count 	33121
attr interpolationmode  none
attr source  packetReceivedFromLower
attr title  "packets received from lower layer, count"
scalar scenarioPRJP1.node[47].wlan.mac 	rcvdPkFromLL:sum(packetBytes) 	12886021
attr interpolationmode  none
attr source  packetReceivedFromLower
attr title  "packets received from lower layer, sum(packetBytes)"
scalar scenarioPRJP1.node[47].wlan.mac 	sentDownPk:count 	5400
attr interpolationmode  none
attr source  packetSentToLower
attr title  "packets sent to lower layer, count"
scalar scenarioPRJP1.node[47].wlan.mac 	sentDownPk:sum(packetBytes) 	2175842
attr interpolationmode  none
attr source  packetSentToLower
attr title  "packets sent to lower layer, sum(packetBytes)"
scalar scenarioPRJP1.node[47].wlan.mac 	rcvdPkFromHL:count 	2842
attr interpolationmode  none
attr source  packetReceivedFromUpper
attr title  "packets received from higher layer, count"
scalar scenarioPRJP1.node[47].wlan.mac 	rcvdPkFromHL:sum(packetBytes) 	1018751
attr interpolationmode  none
attr source  packetReceivedFromUpper
attr title  "packets received from higher layer, sum(packetBytes)"
scalar scenarioPRJP1.node[47].wlan.mac 	passedUpPk:count 	8221
attr interpolationmode  none
attr source  packetSentToUpper
attr title  "packets passed to higher layer, count"
scalar scenarioPRJP1.node[47].wlan.mac 	passedUpPk:sum(packetBytes) 	2423395
attr interpolationmode  none
attr source  packetSentToUpper
attr title  "packets passed to higher layer, sum(packetBytes)"
statistic scenarioPRJP1.node[47].wlan.radio 	radioChannel:histogram
field count 1
field mean 3
field stddev -nan
field sum 3
field sqrsum 9
field min 3
field max 3
attr interpolationmode  sample-hold
attr source  radioChannelChanged
attr title  "Radio channel, histogram"
bin	-INF	0
bin	2	0
bin	3	1
bin	4	0
scalar scenarioPRJP1.node[47].wlan.radio 	transmissionState:count 	21600
attr interpolationmode  sample-hold
attr source  transmissionStateChanged
attr title  "Radio transmission state, count"
scalar scenarioPRJP1.node[47].wlan.radio 	receptionState:count 	83691
attr interpolationmode  sample-hold
attr source  receptionStateChanged
attr title  "Radio reception state, count"
scalar scenarioPRJP1.node[47].wlan.radio 	radioMode:count 	10802
attr interpolationmode  sample-hold
attr source  radioModeChanged
attr title  "Radio mode, count"
statistic scenarioPRJP1.node[47].wlan.radio 	symbolErrorRate:histogram
field count 0
field mean -nan
field stddev -nan
field sum 0
field sqrsum 0
field min -nan
field max -nan
attr source  symbolErrorRate
attr title  "Symbol error rate, histogram"
bin	-INF	0
bin	-0.5	0
bin	-0.46666666666667	0
bin	-0.43333333333333	0
bin	-0.4	0
bin	-0.36666666666667	0
bin	-0.33333333333333	0
bin	-0.3	0
bin	-0.26666666666667	0
bin	-0.23333333333333	0
bin	-0.2	0
bin	-0.16666666666667	0
bin	-0.13333333333333	0
bin	-0.1	0
bin	-0.066666666666667	0
bin	-0.033333333333333	0
bin	0	0
bin	0.033333333333333	0
bin	0.066666666666667	0
bin	0.1	0
bin	0.13333333333333	0
bin	0.16666666666667	0
bin	0.2	0
bin	0.23333333333333	0
bin	0.26666666666667	0
bin	0.3	0
bin	0.33333333333333	0
bin	0.36666666666667	0
bin	0.4	0
bin	0.43333333333333	0
bin	0.46666666666667	0
bin	0.5	0
statistic scenarioPRJP1.node[47].wlan.radio 	bitErrorRate:histogram
field count 0
field mean -nan
field stddev -nan
field sum 0
field sqrsum 0
field min -nan
field max -nan
attr source  bitErrorRate
attr title  "Bit error rate, histogram"
bin	-INF	0
bin	-0.5	0
bin	-0.46666666666667	0
bin	-0.43333333333333	0
bin	-0.4	0
bin	-0.36666666666667	0
bin	-0.33333333333333	0
bin	-0.3	0
bin	-0.26666666666667	0
bin	-0.23333333333333	0
bin	-0.2	0
bin	-0.16666666666667	0
bin	-0.13333333333333	0
bin	-0.1	0
bin	-0.066666666666667	0
bin	-0.033333333333333	0
bin	0	0
bin	0.033333333333333	0
bin	0.066666666666667	0
bin	0.1	0
bin	0.13333333333333	0
bin	0.16666666666667	0
bin	0.2	0
bin	0.23333333333333	0
bin	0.26666666666667	0
bin	0.3	0
bin	0.33333333333333	0
bin	0.36666666666667	0
bin	0.4	0
bin	0.43333333333333	0
bin	0.46666666666667	0
bin	0.5	0
statistic scenarioPRJP1.node[47].wlan.radio 	packetErrorRate:histogram
field count 33121
field mean 0.4163500774905
field stddev 0.48193126692123
field sum 13789.930916563
field sqrsum 13433.815354422
field min 0
field max 1
attr source  packetErrorRate
attr title  "Packet error rate, histogram"
bin	-INF	15245
bin	-1.065489918517e-10	0
bin	-9.2342459604803e-11	0
bin	-7.813592735791e-11	0
bin	-6.3929395111018e-11	0
bin	-4.9722862864125e-11	0
bin	-3.5516330617232e-11	0
bin	-2.1309798370339e-11	0
bin	-7.1032661234464e-12	11551
bin	7.1032661234464e-12	160
bin	2.1309798370339e-11	97
bin	3.5516330617232e-11	52
bin	4.9722862864125e-11	49
bin	6.3929395111018e-11	29
bin	7.813592735791e-11	29
bin	9.2342459604803e-11	29
bin	1.065489918517e-10	26
bin	1.2075552409859e-10	17
bin	1.3496205634548e-10	24
bin	1.4916858859237e-10	15
bin	1.6337512083927e-10	15
bin	1.7758165308616e-10	18
bin	1.9178818533305e-10	16
bin	2.0599471757995e-10	17
bin	2.2020124982684e-10	16
bin	2.3440778207373e-10	14
bin	2.4861431432062e-10	11
bin	2.6282084656752e-10	15
bin	2.7702737881441e-10	8
bin	2.912339110613e-10	5
bin	3.054404433082e-10	5
bin	3.1964697555509e-10	5658
statistic scenarioPRJP1.node[47].wlan.radio 	minSNIR:histogram
field count 33121
field mean 216.94184027901
field stddev 4692.8079020303
field sum 7185330.6918812
field sqrsum 730942210560.78
field min 0.00022250305328365
field max 640906.38149371
attr source  minSNIR
attr title  "Min SNIR, histogram"
bin	-INF	0
bin	-31196.530889228	0
bin	-27036.262229893	0
bin	-22875.993570558	0
bin	-18715.724911224	0
bin	-14555.456251889	0
bin	-10395.187592554	0
bin	-6234.9189332197	0
bin	-2074.6502738851	32657
bin	2085.6183854496	298
bin	6245.8870447842	60
bin	10406.155704119	33
bin	14566.424363454	22
bin	18726.693022788	7
bin	22886.961682123	11
bin	27047.230341458	6
bin	31207.499000792	3
bin	35367.767660127	3
bin	39528.036319461	3
bin	43688.304978796	3
bin	47848.573638131	1
bin	52008.842297465	1
bin	56169.1109568	2
bin	60329.379616135	1
bin	64489.648275469	1
bin	68649.916934804	1
bin	72810.185594139	2
bin	76970.454253473	0
bin	81130.722912808	0
bin	85290.991572143	0
bin	89451.260231477	0
bin	93611.528890812	6
scalar scenarioPRJP1.node[47].lo0.lo 	droppedPkBitError:count 	0
attr interpolationmode  none
attr source  dropPkBitError
attr title  "packets dropped/bit error, count"
scalar scenarioPRJP1.node[47].lo0.lo 	droppedPkBitError:sum(packetBytes) 	0
attr interpolationmode  none
attr source  dropPkBitError
attr title  "packets dropped/bit error, sum(packetBytes)"
scalar scenarioPRJP1.node[47].lo0.lo 	rcvdPkFromHL:count 	0
attr interpolationmode  none
attr source  packetReceivedFromUpper
attr title  "packets received from higher layer, count"
scalar scenarioPRJP1.node[47].lo0.lo 	rcvdPkFromHL:sum(packetBytes) 	0
attr interpolationmode  none
attr source  packetReceivedFromUpper
attr title  "packets received from higher layer, sum(packetBytes)"
scalar scenarioPRJP1.node[47].lo0.lo 	passedUpPk:count 	0
attr interpolationmode  none
attr source  packetSentToUpper
attr title  "packets passed to higher layer, count"
scalar scenarioPRJP1.node[47].lo0.lo 	passedUpPk:sum(packetBytes) 	0
attr interpolationmode  none
attr source  packetSentToUpper
attr title  "packets passed to higher layer, sum(packetBytes)"
scalar scenarioPRJP1.node[74].app 	"Total sent" 	362
scalar scenarioPRJP1.node[74].app 	"Total received" 	25
scalar scenarioPRJP1.node[74].app 	"Total deleted" 	0
scalar scenarioPRJP1.node[74].app 	dropPk:count 	0
attr interpolationmode  none
attr source  dropPk
attr title  "packets dropped, count"
scalar scenarioPRJP1.node[74].app 	dropPk:sum(packetBytes) 	0
attr interpolationmode  none
attr source  dropPk
attr title  "packets dropped, sum(packetBytes)"
scalar scenarioPRJP1.node[74].app 	outOfOrderPk:count 	0
attr interpolationmode  none
attr source  outOfOrderPk
attr title  "packets received out of order, count"
scalar scenarioPRJP1.node[74].app 	outOfOrderPk:sum(packetBytes) 	0
attr interpolationmode  none
attr source  outOfOrderPk
attr title  "packets received out of order, sum(packetBytes)"
scalar scenarioPRJP1.node[74].app 	rcvdPk:count 	25
attr interpolationmode  none
attr source  rcvdPk
attr title  "packets received, count"
scalar scenarioPRJP1.node[74].app 	rcvdPk:sum(packetBytes) 	12800
attr interpolationmode  none
attr source  rcvdPk
attr title  "packets received, sum(packetBytes)"
statistic scenarioPRJP1.node[74].app 	endToEndDelay:histogram
field count 25
field mean 0.56532842946972
field stddev 0.8298896872927
field sum 14.133210736743
field sqrsum 24.519111262962
field min 0.001062257096
field max 2.872982405418
attr interpolationmode  none
attr source  messageAge(rcvdPk)
attr title  "delay, histogram"
attr unit  s
bin	-INF	0
bin	-1.434897817065	0
bin	-1.2434364738435	0
bin	-1.0519751306221	0
bin	-0.8605137874006	0
bin	-0.66905244417913	0
bin	-0.47759110095767	0
bin	-0.2861297577362	0
bin	-0.094668414514733	13
bin	0.096792928706734	2
bin	0.2882542719282	1
bin	0.47971561514967	1
bin	0.67117695837113	2
bin	0.8626383015926	1
bin	1.0540996448141	0
bin	1.2455609880355	0
bin	1.437022331257	2
bin	1.6284836744785	1
bin	1.8199450176999	0
bin	2.0114063609214	0
bin	2.2028677041429	1
bin	2.3943290473643	0
bin	2.5857903905858	0
bin	2.7772517338073	1
bin	2.9687130770287	0
bin	3.1601744202502	0
bin	3.3516357634717	0
bin	3.5430971066931	0
bin	3.7345584499146	0
bin	3.9260197931361	0
bin	4.1174811363575	0
bin	4.308942479579	0
scalar scenarioPRJP1.node[74].app 	sentPk:count 	362
attr interpolationmode  none
attr source  sentPk
attr title  "packets sent, count"
scalar scenarioPRJP1.node[74].app 	sentPk:sum(packetBytes) 	185344
attr interpolationmode  none
attr source  sentPk
attr title  "packets sent, sum(packetBytes)"
scalar scenarioPRJP1.node[74].udp 	droppedPkBadChecksum:count 	0
attr interpolationmode  none
attr title  "packets dropped (checksum error), count"
scalar scenarioPRJP1.node[74].udp 	droppedPkWrongPort:count 	0
attr interpolationmode  none
attr title  "packets dropped (wrong port), count"
scalar scenarioPRJP1.node[74].udp 	passedUpPk:count 	25
attr interpolationmode  none
attr title  "packets passed up, count"
scalar scenarioPRJP1.node[74].udp 	rcvdPk:count 	25
attr interpolationmode  none
attr source  rcvdPk
attr title  "packets received, count"
scalar scenarioPRJP1.node[74].udp 	rcvdPk:sum(packetBytes) 	13000
attr interpolationmode  none
attr source  rcvdPk
attr title  "packets received, sum(packetBytes)"
scalar scenarioPRJP1.node[74].udp 	sentPk:count 	362
attr interpolationmode  none
attr source  sentPk
attr title  "packets sent, count"
scalar scenarioPRJP1.node[74].udp 	sentPk:sum(packetBytes) 	188240
attr interpolationmode  none
attr source  sentPk
attr title  "packets sent, sum(packetBytes)"
scalar scenarioPRJP1.node[74].networkLayer.arp 	failedARPResolution:count 	49
attr title  "ARP failed resolutions, count"
scalar scenarioPRJP1.node[74].networkLayer.arp 	completedARPResolution:count 	784
attr title  "ARP completed resolutions, count"
scalar scenarioPRJP1.node[74].networkLayer.arp 	initiatedARPResolution:count 	75
attr title  "ARP initiated resolutions, count"
scalar scenarioPRJP1.node[74].networkLayer.arp 	sentReply:count 	16
attr title  "ARP replies sent, count"
scalar scenarioPRJP1.node[74].networkLayer.arp 	sentReq:count 	193
attr title  "ARP request sent, count"
scalar scenarioPRJP1.node[74].mobility 	startTime 	7.4
scalar scenarioPRJP1.node[74].mobility 	totalTime 	151.4
scalar scenarioPRJP1.node[74].mobility 	stopTime 	158.9
scalar scenarioPRJP1.node[74].mobility 	minSpeed 	2.4767384236942e-13
scalar scenarioPRJP1.node[74].mobility 	maxSpeed 	19.455158102075
scalar scenarioPRJP1.node[74].mobility 	totalDistance 	1483.390195415
scalar scenarioPRJP1.node[74].mobility 	totalCO2Emission 	482.75119820295
scalar scenarioPRJP1.node[74].wlan.mgmt 	dataQueueLen:max 	6
attr interpolationmode  sample-hold
attr title  "data queue length, max"
scalar scenarioPRJP1.node[74].wlan.mgmt 	dataQueueLen:timeavg 	0
attr interpolationmode  sample-hold
attr title  "data queue length, timeavg"
scalar scenarioPRJP1.node[74].wlan.mgmt 	dropPkByQueue:count 	0
attr interpolationmode  none
attr source  dropPkByQueue
attr title  "packets dropped by queue, count"
scalar scenarioPRJP1.node[74].wlan.mgmt 	dropPkByQueue:sum(packetBytes) 	0
attr interpolationmode  none
attr source  dropPkByQueue
attr title  "packets dropped by queue, sum(packetBytes)"
scalar scenarioPRJP1.node[74].wlan.mac 	"number of received packets" 	436
scalar scenarioPRJP1.node[74].wlan.mac 	"number of collisions" 	15161
scalar scenarioPRJP1.node[74].wlan.mac 	"number of internal collisions" 	0
scalar scenarioPRJP1.node[74].wlan.mac 	"number of retry for AC 0" 	2070
scalar scenarioPRJP1.node[74].wlan.mac 	"number of retry for AC 1" 	0
scalar scenarioPRJP1.node[74].wlan.mac 	"number of retry for AC 2" 	0
scalar scenarioPRJP1.node[74].wlan.mac 	"number of retry for AC 3" 	0
scalar scenarioPRJP1.node[74].wlan.mac 	"sent and received bits" 	6930224
scalar scenarioPRJP1.node[74].wlan.mac 	"sent packet within AC 0" 	296
scalar scenarioPRJP1.node[74].wlan.mac 	"sent packet within AC 1" 	0
scalar scenarioPRJP1.node[74].wlan.mac 	"sent packet within AC 2" 	0
scalar scenarioPRJP1.node[74].wlan.mac 	"sent packet within AC 3" 	0
scalar scenarioPRJP1.node[74].wlan.mac 	"sent in TXOP " 	0
scalar scenarioPRJP1.node[74].wlan.mac 	"sentWithoutRetry AC 0" 	177
scalar scenarioPRJP1.node[74].wlan.mac 	"sentWithoutRetry AC 1" 	0
scalar scenarioPRJP1.node[74].wlan.mac 	"sentWithoutRetry AC 2" 	0
scalar scenarioPRJP1.node[74].wlan.mac 	"sentWithoutRetry AC 3" 	0
scalar scenarioPRJP1.node[74].wlan.mac 	"numGivenUp AC 0" 	293
scalar scenarioPRJP1.node[74].wlan.mac 	"numGivenUp AC 1" 	0
scalar scenarioPRJP1.node[74].wlan.mac 	"numGivenUp AC 2" 	0
scalar scenarioPRJP1.node[74].wlan.mac 	"numGivenUp AC 3" 	0
scalar scenarioPRJP1.node[74].wlan.mac 	"numDropped AC 0" 	0
scalar scenarioPRJP1.node[74].wlan.mac 	"numDropped AC 1" 	0
scalar scenarioPRJP1.node[74].wlan.mac 	"numDropped AC 2" 	0
scalar scenarioPRJP1.node[74].wlan.mac 	"numDropped AC 3" 	0
scalar scenarioPRJP1.node[74].wlan.mac 	rcvdPkFromLL:count 	32927
attr interpolationmode  none
attr source  packetReceivedFromLower
attr title  "packets received from lower layer, count"
scalar scenarioPRJP1.node[74].wlan.mac 	rcvdPkFromLL:sum(packetBytes) 	12693945
attr interpolationmode  none
attr source  packetReceivedFromLower
attr title  "packets received from lower layer, sum(packetBytes)"
scalar scenarioPRJP1.node[74].wlan.mac 	sentDownPk:count 	5408
attr interpolationmode  none
attr source  packetSentToLower
attr title  "packets sent to lower layer, count"
scalar scenarioPRJP1.node[74].wlan.mac 	sentDownPk:sum(packetBytes) 	2150597
attr interpolationmode  none
attr source  packetSentToLower
attr title  "packets sent to lower layer, sum(packetBytes)"
scalar scenarioPRJP1.node[74].wlan.mac 	rcvdPkFromHL:count 	2902
attr interpolationmode  none
attr source  packetReceivedFromUpper
attr title  "packets received from higher layer, count"
scalar scenarioPRJP1.node[74].wlan.mac 	rcvdPkFromHL:sum(packetBytes) 	1024696
attr interpolationmode  none
attr source  packetReceivedFromUpper
attr title  "packets received from higher layer, sum(packetBytes)"
scalar scenarioPRJP1.node[74].wlan.mac 	passedUpPk:count 	8282
attr interpolationmode  none
attr source  packetSentToUpper
attr title  "packets passed to higher layer, count"
scalar scenarioPRJP1.node[74].wlan.mac 	passedUpPk:sum(packetBytes) 	2546205
attr interpolationmode  none
attr source  packetSentToUpper
attr title  "packets passed to higher layer, sum(packetBytes)"
statistic scenarioPRJP1.node[74].wlan.radio 	radioChannel:histogram
field count 1
field mean 3
field stddev -nan
field sum 3
field sqrsum 9
field min 3
field max 3
attr interpolationmode  sample-hold
attr source  radioChannelChanged
attr title  "Radio channel, histogram"
bin	-INF	0
bin	2	0
bin	3	1
bin	4	0
scalar scenarioPRJP1.node[74].wlan.radio 	transmissionState:count 	21632
attr interpolationmode  sample-hold
attr source  transmissionStateChanged
attr title  "Radio transmission state, count"
scalar scenarioPRJP1.node[74].wlan.radio 	receptionState:count 	83662
attr interpolationmode  sample-hold
attr source  receptionStateChanged
attr title  "Radio reception state, count"
scalar scenarioPRJP1.node[74].wlan.radio 	radioMode:count 	10818
attr interpolationmode  sample-hold
attr source  radioModeChanged
attr title  "Radio mode, count"
statistic scenarioPRJP1.node[74].wlan.radio 	symbolErrorRate:histogram
field count 0
field mean -nan
field stddev -nan
field sum 0
field sqrsum 0
field min -nan
field max -nan
attr source  symbolErrorRate
attr title  "Symbol error rate, histogram"
bin	-INF	0
bin	-0.5	0
bin	-0.46666666666667	0
bin	-0.43333333333333	0
bin	-0.4	0
bin	-0.36666666666667	0
bin	-0.33333333333333	0
bin	-0.3	0
bin	-0.26666666666667	0
bin	-0.23333333333333	0
bin	-0.2	0
bin	-0.16666666666667	0
bin	-0.13333333333333	0
bin	-0.1	0
bin	-0.066666666666667	0
bin	-0.033333333333333	0
bin	0	0
bin	0.033333333333333	0
bin	0.066666666666667	0
bin	0.1	0
bin	0.13333333333333	0
bin	0.16666666666667	0
bin	0.2	0
bin	0.23333333333333	0
bin	0.26666666666667	0
bin	0.3	0
bin	0.33333333333333	0
bin	0.36666666666667	0
bin	0.4	0
bin	0.43333333333333	0
bin	0.46666666666667	0
bin	0.5	0
statistic scenarioPRJP1.node[74].wlan.radio 	bitErrorRate:histogram
field count 0
field mean -nan
field stddev -nan
field sum 0
field sqrsum 0
field min -nan
field max -nan
attr source  bitErrorRate
attr title  "Bit error rate, histogram"
bin	-INF	0
bin	-0.5	0
bin	-0.46666666666667	0
bin	-0.43333333333333	0
bin	-0.4	0
bin	-0.36666666666667	0
bin	-0.33333333333333	0
bin	-0.3	0
bin	-0.26666666666667	0
bin	-0.23333333333333	0
bin	-0.2	0
bin	-0.16666666666667	0
bin	-0.13333333333333	0
bin	-0.1	0
bin	-0.066666666666667	0
bin	-0.033333333333333	0
bin	0	0
bin	0.033333333333333	0
bin	0.066666666666667	0
bin	0.1	0
bin	0.13333333333333	0
bin	0.16666666666667	0
bin	0.2	0
bin	0.23333333333333	0
bin	0.26666666666667	0
bin	0.3	0
bin	0.33333333333333	0
bin	0.36666666666667	0
bin	0.4	0
bin	0.43333333333333	0
bin	0.46666666666667	0
bin	0.5	0
statistic scenarioPRJP1.node[74].wlan.radio 	packetErrorRate:histogram
field count 32927
field mean 0.42642707782277
field stddev 0.48319849863959
field sum 14040.96439147
field sqrsum 13675.035876765
field min 0
field max 1
attr source  packetErrorRate
attr title  "Packet error rate, histogram"
bin	-INF	0
bin	-0.5	0
bin	-0.43333333333333	0
bin	-0.36666666666667	0
bin	-0.3	0
bin	-0.23333333333333	0
bin	-0.16666666666667	0
bin	-0.1	0
bin	-0.033333333333333	17415
bin	0.033333333333333	580
bin	0.1	300
bin	0.16666666666667	190
bin	0.23333333333333	152
bin	0.3	131
bin	0.36666666666667	114
bin	0.43333333333333	96
bin	0.5	113
bin	0.56666666666667	102
bin	0.63333333333333	105
bin	0.7	104
bin	0.76666666666667	102
bin	0.83333333333333	127
bin	0.9	207
bin	0.96666666666667	13089
bin	1.0333333333333	0
bin	1.1	0
bin	1.1666666666667	0
bin	1.2333333333333	0
bin	1.3	0
bin	1.3666666666667	0
bin	1.4333333333333	0
bin	1.5	0
statistic scenarioPRJP1.node[74].wlan.radio 	minSNIR:histogram
field count 32927
field mean 186.17430850442
field stddev 3435.8775178834
field sum 6130161.4561251
field sqrsum 389841082241.18
field min 0.0001528809065796
field max 284124.37696247
attr source  minSNIR
attr title  "Min SNIR, histogram"
bin	-INF	0
bin	-4208.1199808832	0
bin	-3647.0325029232	0
bin	-3085.9450249632	0
bin	-2524.8575470032	0
bin	-1963.7700690431	0
bin	-1402.6825910831	0
bin	-841.59511312308	0
bin	-280.50763516306	31062
bin	280.57984279696	1050
bin	841.66732075699	290
bin	1402.754798717	158
bin	1963.842276677	84
bin	2524.9297546371	51
bin	3086.0172325971	29
bin	3647.1047105571	27
bin	4208.1921885171	15
bin	4769.2796664771	15
bin	5330.3671444372	12
bin	5891.4546223972	11
bin	6452.5421003572	11
bin	7013.6295783172	12
bin	7574.7170562773	10
bin	8135.8045342373	8
bin	8696.8920121973	2
bin	9257.9794901573	3
bin	9819.0669681174	5
bin	10380.154446077	1
bin	10941.241924037	4
bin	11502.329401997	1
bin	12063.416879957	3
bin	12624.504357917	63
scalar scenarioPRJP1.node[74].lo0.lo 	droppedPkBitError:count 	0
attr interpolationmode  none
attr source  dropPkBitError
attr title  "packets dropped/bit error, count"
scalar scenarioPRJP1.node[74].lo0.lo 	droppedPkBitError:sum(packetBytes) 	0
attr interpolationmode  none
attr source  dropPkBitError
attr title  "packets dropped/bit error, sum(packetBytes)"
scalar scenarioPRJP1.node[74].lo0.lo 	rcvdPkFromHL:count 	0
attr interpolationmode  none
attr source  packetReceivedFromUpper
attr title  "packets received from higher layer, count"
scalar scenarioPRJP1.node[74].lo0.lo 	rcvdPkFromHL:sum(packetBytes) 	0
attr interpolationmode  none
attr source  packetReceivedFromUpper
attr title  "packets received from higher layer, sum(packetBytes)"
scalar scenarioPRJP1.node[74].lo0.lo 	passedUpPk:count 	0
attr interpolationmode  none
attr source  packetSentToUpper
attr title  "packets passed to higher layer, count"
scalar scenarioPRJP1.node[74].lo0.lo 	passedUpPk:sum(packetBytes) 	0
attr interpolationmode  none
attr source  packetSentToUpper
attr title  "packets passed to higher layer, sum(packetBytes)"
scalar scenarioPRJP1.node[96].app 	"Total sent" 	380
scalar scenarioPRJP1.node[96].app 	"Total received" 	17
scalar scenarioPRJP1.node[96].app 	"Total deleted" 	1
scalar scenarioPRJP1.node[96].app 	dropPk:count 	1
attr interpolationmode  none
attr source  dropPk
attr title  "packets dropped, count"
scalar scenarioPRJP1.node[96].app 	dropPk:sum(packetBytes) 	512
attr interpolationmode  none
attr source  dropPk
attr title  "packets dropped, sum(packetBytes)"
scalar scenarioPRJP1.node[96].app 	outOfOrderPk:count 	0
attr interpolationmode  none
attr source  outOfOrderPk
attr title  "packets received out of order, count"
scalar scenarioPRJP1.node[96].app 	outOfOrderPk:sum(packetBytes) 	0
attr interpolationmode  none
attr source  outOfOrderPk
attr title  "packets received out of order, sum(packetBytes)"
scalar scenarioPRJP1.node[96].app 	rcvdPk:count 	17
attr interpolationmode  none
attr source  rcvdPk
attr title  "packets received, count"
scalar scenarioPRJP1.node[96].app 	rcvdPk:sum(packetBytes) 	8704
attr interpolationmode  none
attr source  rcvdPk
attr title  "packets received, sum(packetBytes)"
statistic scenarioPRJP1.node[96].app 	endToEndDelay:histogram
field count 17
field mean 0.40496609019765
field stddev 0.70895042692124
field sum 6.88442353336
field sqrsum 10.829729406878
field min 0.001126265777
field max 2.569791008498
attr interpolationmode  none
attr source  messageAge(rcvdPk)
attr title  "delay, histogram"
attr unit  s
bin	-INF	0
bin	-1.2832061055835	0
bin	-1.1119617894021	0
bin	-0.9407174732207	0
bin	-0.7694731570393	0
bin	-0.5982288408579	0
bin	-0.4269845246765	0
bin	-0.2557402084951	0
bin	-0.0844958923137	11
bin	0.0867484238677	1
bin	0.2579927400491	1
bin	0.4292370562305	0
bin	0.6004813724119	0
bin	0.7717256885933	0
bin	0.9429700047747	2
bin	1.1142143209561	0
bin	1.2854586371375	1
bin	1.4567029533189	0
bin	1.6279472695003	0
bin	1.7991915856817	0
bin	1.9704359018631	0
bin	2.1416802180445	0
bin	2.3129245342259	0
bin	2.4841688504073	1
bin	2.6554131665887	0
bin	2.8266574827701	0
bin	2.9979017989515	0
bin	3.1691461151329	0
bin	3.3403904313143	0
bin	3.5116347474957	0
bin	3.6828790636771	0
bin	3.8541233798585	0
scalar scenarioPRJP1.node[96].app 	sentPk:count 	380
attr interpolationmode  none
attr source  sentPk
attr title  "packets sent, count"
scalar scenarioPRJP1.node[96].app 	sentPk:sum(packetBytes) 	194560
attr interpolationmode  none
attr source  sentPk
attr title  "packets sent, sum(packetBytes)"
scalar scenarioPRJP1.node[96].udp 	droppedPkBadChecksum:count 	0
attr interpolationmode  none
attr title  "packets dropped (checksum error), count"
scalar scenarioPRJP1.node[96].udp 	droppedPkWrongPort:count 	0
attr interpolationmode  none
attr title  "packets dropped (wrong port), count"
scalar scenarioPRJP1.node[96].udp 	passedUpPk:count 	18
attr interpolationmode  none
attr title  "packets passed up, count"
scalar scenarioPRJP1.node[96].udp 	rcvdPk:count 	18
attr interpolationmode  none
attr source  rcvdPk
attr title  "packets received, count"
scalar scenarioPRJP1.node[96].udp 	rcvdPk:sum(packetBytes) 	9360
attr interpolationmode  none
attr source  rcvdPk
attr title  "packets received, sum(packetBytes)"
scalar scenarioPRJP1.node[96].udp 	sentPk:count 	380
attr interpolationmode  none
attr source  sentPk
attr title  "packets sent, count"
scalar scenarioPRJP1.node[96].udp 	sentPk:sum(packetBytes) 	197600
attr interpolationmode  none
attr source  sentPk
attr title  "packets sent, sum(packetBytes)"
scalar scenarioPRJP1.node[96].networkLayer.arp 	failedARPResolution:count 	55
attr title  "ARP failed resolutions, count"
scalar scenarioPRJP1.node[96].networkLayer.arp 	completedARPResolution:count 	627
attr title  "ARP completed resolutions, count"
scalar scenarioPRJP1.node[96].networkLayer.arp 	initiatedARPResolution:count 	82
attr title  "ARP initiated resolutions, count"
scalar scenarioPRJP1.node[96].networkLayer.arp 	sentReply:count 	12
attr title  "ARP replies sent, count"
scalar scenarioPRJP1.node[96].networkLayer.arp 	sentReq:count 	222
attr title  "ARP request sent, count"
scalar scenarioPRJP1.node[96].mobility 	startTime 	9.8
scalar scenarioPRJP1.node[96].mobility 	totalTime 	152.4
scalar scenarioPRJP1.node[96].mobility 	stopTime 	162.3
scalar scenarioPRJP1.node[96].mobility 	minSpeed 	2.476767566586e-13
scalar scenarioPRJP1.node[96].mobility 	maxSpeed 	16.011207397903
scalar scenarioPRJP1.node[96].mobility 	totalDistance 	1484.5519951322
scalar scenarioPRJP1.node[96].mobility 	totalCO2Emission 	418.1993533737
scalar scenarioPRJP1.node[96].wlan.mgmt 	dataQueueLen:max 	3
attr interpolationmode  sample-hold
attr title  "data queue length, max"
scalar scenarioPRJP1.node[96].wlan.mgmt 	dataQueueLen:timeavg 	0
attr interpolationmode  sample-hold
attr title  "data queue length, timeavg"
scalar scenarioPRJP1.node[96].wlan.mgmt 	dropPkByQueue:count 	0
attr interpolationmode  none
attr source  dropPkByQueue
attr title  "packets dropped by queue, count"
scalar scenarioPRJP1.node[96].wlan.mgmt 	dropPkByQueue:sum(packetBytes) 	0
attr interpolationmode  none
attr source  dropPkByQueue
attr title  "packets dropped by queue, sum(packetBytes)"
scalar scenarioPRJP1.node[96].wlan.mac 	"number of received packets" 	350
scalar scenarioPRJP1.node[96].wlan.mac 	"number of collisions" 	15440
scalar scenarioPRJP1.node[96].wlan.mac 	"number of internal collisions" 	0
scalar scenarioPRJP1.node[96].wlan.mac 	"number of retry for AC 0" 	2070
scalar scenarioPRJP1.node[96].wlan.mac 	"number of retry for AC 1" 	0
scalar scenarioPRJP1.node[96].wlan.mac 	"number of retry for AC 2" 	0
scalar scenarioPRJP1.node[96].wlan.mac 	"number of retry for AC 3" 	0
scalar scenarioPRJP1.node[96].wlan.mac 	"sent and received bits" 	6506144
scalar scenarioPRJP1.node[96].wlan.mac 	"sent packet within AC 0" 	181
scalar scenarioPRJP1.node[96].wlan.mac 	"sent packet within AC 1" 	0
scalar scenarioPRJP1.node[96].wlan.mac 	"sent packet within AC 2" 	0
scalar scenarioPRJP1.node[96].wlan.mac 	"sent packet within AC 3" 	0
scalar scenarioPRJP1.node[96].wlan.mac 	"sent in TXOP " 	0
scalar scenarioPRJP1.node[96].wlan.mac 	"sentWithoutRetry AC 0" 	104
scalar scenarioPRJP1.node[96].wlan.mac 	"sentWithoutRetry AC 1" 	0
scalar scenarioPRJP1.node[96].wlan.mac 	"sentWithoutRetry AC 2" 	0
scalar scenarioPRJP1.node[96].wlan.mac 	"sentWithoutRetry AC 3" 	0
scalar scenarioPRJP1.node[96].wlan.mac 	"numGivenUp AC 0" 	304
scalar scenarioPRJP1.node[96].wlan.mac 	"numGivenUp AC 1" 	0
scalar scenarioPRJP1.node[96].wlan.mac 	"numGivenUp AC 2" 	0
scalar scenarioPRJP1.node[96].wlan.mac 	"numGivenUp AC 3" 	0
scalar scenarioPRJP1.node[96].wlan.mac 	"numDropped AC 0" 	0
scalar scenarioPRJP1.node[96].wlan.mac 	"numDropped AC 1" 	0
scalar scenarioPRJP1.node[96].wlan.mac 	"numDropped AC 2" 	0
scalar scenarioPRJP1.node[96].wlan.mac 	"numDropped AC 3" 	0
scalar scenarioPRJP1.node[96].wlan.mac 	rcvdPkFromLL:count 	28181
attr interpolationmode  none
attr source  packetReceivedFromLower
attr title  "packets received from lower layer, count"
scalar scenarioPRJP1.node[96].wlan.mac 	rcvdPkFromLL:sum(packetBytes) 	11070314
attr interpolationmode  none
attr source  packetReceivedFromLower
attr title  "packets received from lower layer, sum(packetBytes)"
scalar scenarioPRJP1.node[96].wlan.mac 	sentDownPk:count 	5099
attr interpolationmode  none
attr source  packetSentToLower
attr title  "packets sent to lower layer, count"
scalar scenarioPRJP1.node[96].wlan.mac 	sentDownPk:sum(packetBytes) 	2124270
attr interpolationmode  none
attr source  packetSentToLower
attr title  "packets sent to lower layer, sum(packetBytes)"
scalar scenarioPRJP1.node[96].wlan.mac 	rcvdPkFromHL:count 	2679
attr interpolationmode  none
attr source  packetReceivedFromUpper
attr title  "packets received from higher layer, count"
scalar scenarioPRJP1.node[96].wlan.mac 	rcvdPkFromHL:sum(packetBytes) 	981045
attr interpolationmode  none
attr source  packetReceivedFromUpper
attr title  "packets received from higher layer, sum(packetBytes)"
scalar scenarioPRJP1.node[96].wlan.mac 	passedUpPk:count 	6139
attr interpolationmode  none
attr source  packetSentToUpper
attr title  "packets passed to higher layer, count"
scalar scenarioPRJP1.node[96].wlan.mac 	passedUpPk:sum(packetBytes) 	1976891
attr interpolationmode  none
attr source  packetSentToUpper
attr title  "packets passed to higher layer, sum(packetBytes)"
statistic scenarioPRJP1.node[96].wlan.radio 	radioChannel:histogram
field count 1
field mean 3
field stddev -nan
field sum 3
field sqrsum 9
field min 3
field max 3
attr interpolationmode  sample-hold
attr source  radioChannelChanged
attr title  "Radio channel, histogram"
bin	-INF	0
bin	2	0
bin	3	1
bin	4	0
scalar scenarioPRJP1.node[96].wlan.radio 	transmissionState:count 	20396
attr interpolationmode  sample-hold
attr source  transmissionStateChanged
attr title  "Radio transmission state, count"
scalar scenarioPRJP1.node[96].wlan.radio 	receptionState:count 	75588
attr interpolationmode  sample-hold
attr source  receptionStateChanged
attr title  "Radio reception state, count"
scalar scenarioPRJP1.node[96].wlan.radio 	radioMode:count 	10200
attr interpolationmode  sample-hold
attr source  radioModeChanged
attr title  "Radio mode, count"
statistic scenarioPRJP1.node[96].wlan.radio 	symbolErrorRate:histogram
field count 0
field mean -nan
field stddev -nan
field sum 0
field sqrsum 0
field min -nan
field max -nan
attr source  symbolErrorRate
attr title  "Symbol error rate, histogram"
bin	-INF	0
bin	-0.5	0
bin	-0.46666666666667	0
bin	-0.43333333333333	0
bin	-0.4	0
bin	-0.36666666666667	0
bin	-0.33333333333333	0
bin	-0.3	0
bin	-0.26666666666667	0
bin	-0.23333333333333	0
bin	-0.2	0
bin	-0.16666666666667	0
bin	-0.13333333333333	0
bin	-0.1	0
bin	-0.066666666666667	0
bin	-0.033333333333333	0
bin	0	0
bin	0.033333333333333	0
bin	0.066666666666667	0
bin	0.1	0
bin	0.13333333333333	0
bin	0.16666666666667	0
bin	0.2	0
bin	0.23333333333333	0
bin	0.26666666666667	0
bin	0.3	0
bin	0.33333333333333	0
bin	0.36666666666667	0
bin	0.4	0
bin	0.43333333333333	0
bin	0.46666666666667	0
bin	0.5	0
statistic scenarioPRJP1.node[96].wlan.radio 	bitErrorRate:histogram
field count 0
field mean -nan
field stddev -nan
field sum 0
field sqrsum 0
field min -nan
field max -nan
attr source  bitErrorRate
attr title  "Bit error rate, histogram"
bin	-INF	0
bin	-0.5	0
bin	-0.46666666666667	0
bin	-0.43333333333333	0
bin	-0.4	0
bin	-0.36666666666667	0
bin	-0.33333333333333	0
bin	-0.3	0
bin	-0.26666666666667	0
bin	-0.23333333333333	0
bin	-0.2	0
bin	-0.16666666666667	0
bin	-0.13333333333333	0
bin	-0.1	0
bin	-0.066666666666667	0
bin	-0.033333333333333	0
bin	0	0
bin	0.033333333333333	0
bin	0.066666666666667	0
bin	0.1	0
bin	0.13333333333333	0
bin	0.16666666666667	0
bin	0.2	0
bin	0.23333333333333	0
bin	0.26666666666667	0
bin	0.3	0
bin	0.33333333333333	0
bin	0.36666666666667	0
bin	0.4	0
bin	0.43333333333333	0
bin	0.46666666666667	0
bin	0.5	0
statistic scenarioPRJP1.node[96].wlan.radio 	packetErrorRate:histogram
field count 28181
field mean 0.50757159926169
field stddev 0.48825657503838
field sum 14303.875238794
field sqrsum 13978.197363456
field min 0
field max 1
attr source  packetErrorRate
attr title  "Packet error rate, histogram"
bin	-INF	0
bin	-0.5	0
bin	-0.43333333333333	0
bin	-0.36666666666667	0
bin	-0.3	0
bin	-0.23333333333333	0
bin	-0.16666666666667	0
bin	-0.1	0
bin	-0.033333333333333	12579
bin	0.033333333333333	494
bin	0.1	251
bin	0.16666666666667	206
bin	0.23333333333333	139
bin	0.3	109
bin	0.36666666666667	104
bin	0.43333333333333	88
bin	0.5	91
bin	0.56666666666667	83
bin	0.63333333333333	81
bin	0.7	93
bin	0.76666666666667	99
bin	0.83333333333333	123
bin	0.9	206
bin	0.96666666666667	13435
bin	1.0333333333333	0
bin	1.1	0
bin	1.1666666666667	0
bin	1.2333333333333	0
bin	1.3	0
bin	1.3666666666667	0
bin	1.4333333333333	0
bin	1.5	0
statistic scenarioPRJP1.node[96].wlan.radio 	minSNIR:histogram
field count 28181
field mean 576.00732905859
field stddev 12183.891783363
field sum 16232462.5402
field sqrsum 4192592648493.4
field min 5.6344760034379e-05
field max 881401.14993857
attr source  minSNIR
attr title  "Min SNIR, histogram"
bin	-INF	0
bin	-11220.646580007	0
bin	-9724.5273945712	0
bin	-8228.4082091357	0
bin	-6732.2890237001	0
bin	-5236.1698382646	0
bin	-3740.0506528291	0
bin	-2243.9314673936	0
bin	-747.81228195808	26833
bin	748.30690347743	789
bin	2244.4260889129	213
bin	3740.5452743485	103
bin	5236.664459784	56
bin	6732.7836452195	30
bin	8228.902830655	15
bin	9725.0220160905	14
bin	11221.141201526	10
bin	12717.260386962	10
bin	14213.379572397	7
bin	15709.498757833	8
bin	17205.617943268	5
bin	18701.737128704	3
bin	20197.856314139	3
bin	21693.975499575	5
bin	23190.09468501	4
bin	24686.213870446	0
bin	26182.333055881	2
bin	27678.452241317	1
bin	29174.571426752	2
bin	30670.690612188	2
bin	32166.809797623	4
bin	33662.928983059	62
scalar scenarioPRJP1.node[96].lo0.lo 	droppedPkBitError:count 	0
attr interpolationmode  none
attr source  dropPkBitError
attr title  "packets dropped/bit error, count"
scalar scenarioPRJP1.node[96].lo0.lo 	droppedPkBitError:sum(packetBytes) 	0
attr interpolationmode  none
attr source  dropPkBitError
attr title  "packets dropped/bit error, sum(packetBytes)"
scalar scenarioPRJP1.node[96].lo0.lo 	rcvdPkFromHL:count 	0
attr interpolationmode  none
attr source  packetReceivedFromUpper
attr title  "packets received from higher layer, count"
scalar scenarioPRJP1.node[96].lo0.lo 	rcvdPkFromHL:sum(packetBytes) 	0
attr interpolationmode  none
attr source  packetReceivedFromUpper
attr title  "packets received from higher layer, sum(packetBytes)"
scalar scenarioPRJP1.node[96].lo0.lo 	passedUpPk:count 	0
attr interpolationmode  none
attr source  packetSentToUpper
attr title  "packets passed to higher layer, count"
scalar scenarioPRJP1.node[96].lo0.lo 	passedUpPk:sum(packetBytes) 	0
attr interpolationmode  none
attr source  packetSentToUpper
attr title  "packets passed to higher layer, sum(packetBytes)"
scalar scenarioPRJP1.node[58].app 	"Total sent" 	376
scalar scenarioPRJP1.node[58].app 	"Total received" 	17
scalar scenarioPRJP1.node[58].app 	"Total deleted" 	0
scalar scenarioPRJP1.node[58].app 	dropPk:count 	0
attr interpolationmode  none
attr source  dropPk
attr title  "packets dropped, count"
scalar scenarioPRJP1.node[58].app 	dropPk:sum(packetBytes) 	0
attr interpolationmode  none
attr source  dropPk
attr title  "packets dropped, sum(packetBytes)"
scalar scenarioPRJP1.node[58].app 	outOfOrderPk:count 	0
attr interpolationmode  none
attr source  outOfOrderPk
attr title  "packets received out of order, count"
scalar scenarioPRJP1.node[58].app 	outOfOrderPk:sum(packetBytes) 	0
attr interpolationmode  none
attr source  outOfOrderPk
attr title  "packets received out of order, sum(packetBytes)"
scalar scenarioPRJP1.node[58].app 	rcvdPk:count 	17
attr interpolationmode  none
attr source  rcvdPk
attr title  "packets received, count"
scalar scenarioPRJP1.node[58].app 	rcvdPk:sum(packetBytes) 	8704
attr interpolationmode  none
attr source  rcvdPk
attr title  "packets received, sum(packetBytes)"
statistic scenarioPRJP1.node[58].app 	endToEndDelay:histogram
field count 17
field mean 0.64000394396341
field stddev 1.3256892175231
field sum 10.880067047378
field sqrsum 35.082516244221
field min 0.001230149573
field max 5.164286642258
attr interpolationmode  none
attr source  messageAge(rcvdPk)
attr title  "delay, histogram"
attr unit  s
bin	-INF	0
bin	-2.5802980967695	0
bin	-2.2360943305905	0
bin	-1.8918905644115	0
bin	-1.5476867982325	0
bin	-1.2034830320535	0
bin	-0.8592792658745	0
bin	-0.5150754996955	0
bin	-0.1708717335165	11
bin	0.1733320326625	2
bin	0.5175357988415	0
bin	0.8617395650205	0
bin	1.2059433311995	2
bin	1.5501470973785	0
bin	1.8943508635575	1
bin	2.2385546297365	0
bin	2.5827583959155	0
bin	2.9269621620945	0
bin	3.2711659282735	0
bin	3.6153696944525	0
bin	3.9595734606315	0
bin	4.3037772268105	0
bin	4.6479809929895	0
bin	4.9921847591685	1
bin	5.3363885253475	0
bin	5.6805922915265	0
bin	6.0247960577055	0
bin	6.3689998238845	0
bin	6.7132035900635	0
bin	7.0574073562425	0
bin	7.4016111224215	0
bin	7.7458148886005	0
scalar scenarioPRJP1.node[58].app 	sentPk:count 	376
attr interpolationmode  none
attr source  sentPk
attr title  "packets sent, count"
scalar scenarioPRJP1.node[58].app 	sentPk:sum(packetBytes) 	192512
attr interpolationmode  none
attr source  sentPk
attr title  "packets sent, sum(packetBytes)"
scalar scenarioPRJP1.node[58].udp 	droppedPkBadChecksum:count 	0
attr interpolationmode  none
attr title  "packets dropped (checksum error), count"
scalar scenarioPRJP1.node[58].udp 	droppedPkWrongPort:count 	0
attr interpolationmode  none
attr title  "packets dropped (wrong port), count"
scalar scenarioPRJP1.node[58].udp 	passedUpPk:count 	17
attr interpolationmode  none
attr title  "packets passed up, count"
scalar scenarioPRJP1.node[58].udp 	rcvdPk:count 	17
attr interpolationmode  none
attr source  rcvdPk
attr title  "packets received, count"
scalar scenarioPRJP1.node[58].udp 	rcvdPk:sum(packetBytes) 	8840
attr interpolationmode  none
attr source  rcvdPk
attr title  "packets received, sum(packetBytes)"
scalar scenarioPRJP1.node[58].udp 	sentPk:count 	376
attr interpolationmode  none
attr source  sentPk
attr title  "packets sent, count"
scalar scenarioPRJP1.node[58].udp 	sentPk:sum(packetBytes) 	195520
attr interpolationmode  none
attr source  sentPk
attr title  "packets sent, sum(packetBytes)"
scalar scenarioPRJP1.node[58].networkLayer.arp 	failedARPResolution:count 	41
attr title  "ARP failed resolutions, count"
scalar scenarioPRJP1.node[58].networkLayer.arp 	completedARPResolution:count 	889
attr title  "ARP completed resolutions, count"
scalar scenarioPRJP1.node[58].networkLayer.arp 	initiatedARPResolution:count 	69
attr title  "ARP initiated resolutions, count"
scalar scenarioPRJP1.node[58].networkLayer.arp 	sentReply:count 	12
attr title  "ARP replies sent, count"
scalar scenarioPRJP1.node[58].networkLayer.arp 	sentReq:count 	171
attr title  "ARP request sent, count"
scalar scenarioPRJP1.node[58].mobility 	startTime 	5
scalar scenarioPRJP1.node[58].mobility 	totalTime 	157.4
scalar scenarioPRJP1.node[58].mobility 	stopTime 	162.5
scalar scenarioPRJP1.node[58].mobility 	minSpeed 	2.4755734736611e-13
scalar scenarioPRJP1.node[58].mobility 	maxSpeed 	16.386271559659
scalar scenarioPRJP1.node[58].mobility 	totalDistance 	1448.0050756692
scalar scenarioPRJP1.node[58].mobility 	totalCO2Emission 	397.84174406889
scalar scenarioPRJP1.node[58].wlan.mgmt 	dataQueueLen:max 	2
attr interpolationmode  sample-hold
attr title  "data queue length, max"
scalar scenarioPRJP1.node[58].wlan.mgmt 	dataQueueLen:timeavg 	0
attr interpolationmode  sample-hold
attr title  "data queue length, timeavg"
scalar scenarioPRJP1.node[58].wlan.mgmt 	dropPkByQueue:count 	0
attr interpolationmode  none
attr source  dropPkByQueue
attr title  "packets dropped by queue, count"
scalar scenarioPRJP1.node[58].wlan.mgmt 	dropPkByQueue:sum(packetBytes) 	0
attr interpolationmode  none
attr source  dropPkByQueue
attr title  "packets dropped by queue, sum(packetBytes)"
scalar scenarioPRJP1.node[58].wlan.mac 	"number of received packets" 	387
scalar scenarioPRJP1.node[58].wlan.mac 	"number of collisions" 	17011
scalar scenarioPRJP1.node[58].wlan.mac 	"number of internal collisions" 	0
scalar scenarioPRJP1.node[58].wlan.mac 	"number of retry for AC 0" 	1938
scalar scenarioPRJP1.node[58].wlan.mac 	"number of retry for AC 1" 	0
scalar scenarioPRJP1.node[58].wlan.mac 	"number of retry for AC 2" 	0
scalar scenarioPRJP1.node[58].wlan.mac 	"number of retry for AC 3" 	0
scalar scenarioPRJP1.node[58].wlan.mac 	"sent and received bits" 	6704080
scalar scenarioPRJP1.node[58].wlan.mac 	"sent packet within AC 0" 	263
scalar scenarioPRJP1.node[58].wlan.mac 	"sent packet within AC 1" 	0
scalar scenarioPRJP1.node[58].wlan.mac 	"sent packet within AC 2" 	0
scalar scenarioPRJP1.node[58].wlan.mac 	"sent packet within AC 3" 	0
scalar scenarioPRJP1.node[58].wlan.mac 	"sent in TXOP " 	0
scalar scenarioPRJP1.node[58].wlan.mac 	"sentWithoutRetry AC 0" 	194
scalar scenarioPRJP1.node[58].wlan.mac 	"sentWithoutRetry AC 1" 	0
scalar scenarioPRJP1.node[58].wlan.mac 	"sentWithoutRetry AC 2" 	0
scalar scenarioPRJP1.node[58].wlan.mac 	"sentWithoutRetry AC 3" 	0
scalar scenarioPRJP1.node[58].wlan.mac 	"numGivenUp AC 0" 	299
scalar scenarioPRJP1.node[58].wlan.mac 	"numGivenUp AC 1" 	0
scalar scenarioPRJP1.node[58].wlan.mac 	"numGivenUp AC 2" 	0
scalar scenarioPRJP1.node[58].wlan.mac 	"numGivenUp AC 3" 	0
scalar scenarioPRJP1.node[58].wlan.mac 	"numDropped AC 0" 	0
scalar scenarioPRJP1.node[58].wlan.mac 	"numDropped AC 1" 	0
scalar scenarioPRJP1.node[58].wlan.mac 	"numDropped AC 2" 	0
scalar scenarioPRJP1.node[58].wlan.mac 	"numDropped AC 3" 	0
scalar scenarioPRJP1.node[58].wlan.mac 	rcvdPkFromLL:count 	35933
attr interpolationmode  none
attr source  packetReceivedFromLower
attr title  "packets received from lower layer, count"
scalar scenarioPRJP1.node[58].wlan.mac 	rcvdPkFromLL:sum(packetBytes) 	13871632
attr interpolationmode  none
attr source  packetReceivedFromLower
attr title  "packets received from lower layer, sum(packetBytes)"
scalar scenarioPRJP1.node[58].wlan.mac 	sentDownPk:count 	5234
attr interpolationmode  none
attr source  packetSentToLower
attr title  "packets sent to lower layer, count"
scalar scenarioPRJP1.node[58].wlan.mac 	sentDownPk:sum(packetBytes) 	2060541
attr interpolationmode  none
attr source  packetSentToLower
attr title  "packets sent to lower layer, sum(packetBytes)"
scalar scenarioPRJP1.node[58].wlan.mac 	rcvdPkFromHL:count 	2909
attr interpolationmode  none
attr source  packetReceivedFromUpper
attr title  "packets received from higher layer, count"
scalar scenarioPRJP1.node[58].wlan.mac 	rcvdPkFromHL:sum(packetBytes) 	1000390
attr interpolationmode  none
attr source  packetReceivedFromUpper
attr title  "packets received from higher layer, sum(packetBytes)"
scalar scenarioPRJP1.node[58].wlan.mac 	passedUpPk:count 	8688
attr interpolationmode  none
attr source  packetSentToUpper
attr title  "packets passed to higher layer, count"
scalar scenarioPRJP1.node[58].wlan.mac 	passedUpPk:sum(packetBytes) 	2485990
attr interpolationmode  none
attr source  packetSentToUpper
attr title  "packets passed to higher layer, sum(packetBytes)"
statistic scenarioPRJP1.node[58].wlan.radio 	radioChannel:histogram
field count 1
field mean 3
field stddev -nan
field sum 3
field sqrsum 9
field min 3
field max 3
attr interpolationmode  sample-hold
attr source  radioChannelChanged
attr title  "Radio channel, histogram"
bin	-INF	0
bin	2	0
bin	3	1
bin	4	0
scalar scenarioPRJP1.node[58].wlan.radio 	transmissionState:count 	20936
attr interpolationmode  sample-hold
attr source  transmissionStateChanged
attr title  "Radio transmission state, count"
scalar scenarioPRJP1.node[58].wlan.radio 	receptionState:count 	92306
attr interpolationmode  sample-hold
attr source  receptionStateChanged
attr title  "Radio reception state, count"
scalar scenarioPRJP1.node[58].wlan.radio 	radioMode:count 	10470
attr interpolationmode  sample-hold
attr source  radioModeChanged
attr title  "Radio mode, count"
statistic scenarioPRJP1.node[58].wlan.radio 	symbolErrorRate:histogram
field count 0
field mean -nan
field stddev -nan
field sum 0
field sqrsum 0
field min -nan
field max -nan
attr source  symbolErrorRate
attr title  "Symbol error rate, histogram"
bin	-INF	0
bin	-0.5	0
bin	-0.46666666666667	0
bin	-0.43333333333333	0
bin	-0.4	0
bin	-0.36666666666667	0
bin	-0.33333333333333	0
bin	-0.3	0
bin	-0.26666666666667	0
bin	-0.23333333333333	0
bin	-0.2	0
bin	-0.16666666666667	0
bin	-0.13333333333333	0
bin	-0.1	0
bin	-0.066666666666667	0
bin	-0.033333333333333	0
bin	0	0
bin	0.033333333333333	0
bin	0.066666666666667	0
bin	0.1	0
bin	0.13333333333333	0
bin	0.16666666666667	0
bin	0.2	0
bin	0.23333333333333	0
bin	0.26666666666667	0
bin	0.3	0
bin	0.33333333333333	0
bin	0.36666666666667	0
bin	0.4	0
bin	0.43333333333333	0
bin	0.46666666666667	0
bin	0.5	0
statistic scenarioPRJP1.node[58].wlan.radio 	bitErrorRate:histogram
field count 0
field mean -nan
field stddev -nan
field sum 0
field sqrsum 0
field min -nan
field max -nan
attr source  bitErrorRate
attr title  "Bit error rate, histogram"
bin	-INF	0
bin	-0.5	0
bin	-0.46666666666667	0
bin	-0.43333333333333	0
bin	-0.4	0
bin	-0.36666666666667	0
bin	-0.33333333333333	0
bin	-0.3	0
bin	-0.26666666666667	0
bin	-0.23333333333333	0
bin	-0.2	0
bin	-0.16666666666667	0
bin	-0.13333333333333	0
bin	-0.1	0
bin	-0.066666666666667	0
bin	-0.033333333333333	0
bin	0	0
bin	0.033333333333333	0
bin	0.066666666666667	0
bin	0.1	0
bin	0.13333333333333	0
bin	0.16666666666667	0
bin	0.2	0
bin	0.23333333333333	0
bin	0.26666666666667	0
bin	0.3	0
bin	0.33333333333333	0
bin	0.36666666666667	0
bin	0.4	0
bin	0.43333333333333	0
bin	0.46666666666667	0
bin	0.5	0
statistic scenarioPRJP1.node[58].wlan.radio 	packetErrorRate:histogram
field count 35933
field mean 0.44164973721296
field stddev 0.48672773778637
field sum 15869.800007273
field sqrsum 15521.323604568
field min 0
field max 1
attr source  packetErrorRate
attr title  "Packet error rate, histogram"
bin	-INF	0
bin	-1	0
bin	0	22153
bin	1	13780
bin	2	0
statistic scenarioPRJP1.node[58].wlan.radio 	minSNIR:histogram
field count 35933
field mean 288.37355178176
field stddev 4783.4430058978
field sum 10362126.836174
field sqrsum 825160004748.6
field min 0.00033831708158127
field max 392964.37110997
attr source  minSNIR
attr title  "Min SNIR, histogram"
bin	-INF	0
bin	-4251.5899717079	0
bin	-3684.7079333229	0
bin	-3117.8258949379	0
bin	-2550.9438565529	0
bin	-1984.061818168	0
bin	-1417.179779783	0
bin	-850.29774139796	0
bin	-283.41570301297	33234
bin	283.46633537203	1636
bin	850.34837375702	408
bin	1417.230412142	150
bin	1984.112450527	92
bin	2550.994488912	57
bin	3117.876527297	40
bin	3684.758565682	32
bin	4251.640604067	32
bin	4818.522642452	30
bin	5385.404680837	9
bin	5952.286719222	13
bin	6519.168757607	19
bin	7086.050795992	13
bin	7652.932834377	9
bin	8219.814872762	12
bin	8786.6969111469	10
bin	9353.5789495319	6
bin	9920.4609879169	9
bin	10487.343026302	3
bin	11054.225064687	2
bin	11621.107103072	4
bin	12187.989141457	3
bin	12754.871179842	110
scalar scenarioPRJP1.node[58].lo0.lo 	droppedPkBitError:count 	0
attr interpolationmode  none
attr source  dropPkBitError
attr title  "packets dropped/bit error, count"
scalar scenarioPRJP1.node[58].lo0.lo 	droppedPkBitError:sum(packetBytes) 	0
attr interpolationmode  none
attr source  dropPkBitError
attr title  "packets dropped/bit error, sum(packetBytes)"
scalar scenarioPRJP1.node[58].lo0.lo 	rcvdPkFromHL:count 	0
attr interpolationmode  none
attr source  packetReceivedFromUpper
attr title  "packets received from higher layer, count"
scalar scenarioPRJP1.node[58].lo0.lo 	rcvdPkFromHL:sum(packetBytes) 	0
attr interpolationmode  none
attr source  packetReceivedFromUpper
attr title  "packets received from higher layer, sum(packetBytes)"
scalar scenarioPRJP1.node[58].lo0.lo 	passedUpPk:count 	0
attr interpolationmode  none
attr source  packetSentToUpper
attr title  "packets passed to higher layer, count"
scalar scenarioPRJP1.node[58].lo0.lo 	passedUpPk:sum(packetBytes) 	0
attr interpolationmode  none
attr source  packetSentToUpper
attr title  "packets passed to higher layer, sum(packetBytes)"
scalar scenarioPRJP1.node[31].app 	"Total sent" 	612
scalar scenarioPRJP1.node[31].app 	"Total received" 	36
scalar scenarioPRJP1.node[31].app 	"Total deleted" 	0
scalar scenarioPRJP1.node[31].app 	dropPk:count 	0
attr interpolationmode  none
attr source  dropPk
attr title  "packets dropped, count"
scalar scenarioPRJP1.node[31].app 	dropPk:sum(packetBytes) 	0
attr interpolationmode  none
attr source  dropPk
attr title  "packets dropped, sum(packetBytes)"
scalar scenarioPRJP1.node[31].app 	outOfOrderPk:count 	0
attr interpolationmode  none
attr source  outOfOrderPk
attr title  "packets received out of order, count"
scalar scenarioPRJP1.node[31].app 	outOfOrderPk:sum(packetBytes) 	0
attr interpolationmode  none
attr source  outOfOrderPk
attr title  "packets received out of order, sum(packetBytes)"
scalar scenarioPRJP1.node[31].app 	rcvdPk:count 	36
attr interpolationmode  none
attr source  rcvdPk
attr title  "packets received, count"
scalar scenarioPRJP1.node[31].app 	rcvdPk:sum(packetBytes) 	18432
attr interpolationmode  none
attr source  rcvdPk
attr title  "packets received, sum(packetBytes)"
statistic scenarioPRJP1.node[31].app 	endToEndDelay:histogram
field count 36
field mean 0.61487695577658
field stddev 1.2418230233838
field sum 22.135570407957
field sqrsum 67.585006896037
field min 0.000925356209
field max 4.664194304944
attr interpolationmode  none
attr source  messageAge(rcvdPk)
attr title  "delay, histogram"
attr unit  s
bin	-INF	0
bin	-2.3307091181585	0
bin	-2.0198245215762	0
bin	-1.7089399249938	0
bin	-1.3980553284115	0
bin	-1.0871707318292	0
bin	-0.77628613524683	0
bin	-0.4654015386645	0
bin	-0.15451694208217	26
bin	0.15636765450017	1
bin	0.4672522510825	1
bin	0.77813684766483	1
bin	1.0890214442472	1
bin	1.3999060408295	2
bin	1.7107906374118	0
bin	2.0216752339942	0
bin	2.3325598305765	0
bin	2.6434444271588	1
bin	2.9543290237412	1
bin	3.2652136203235	0
bin	3.5760982169058	0
bin	3.8869828134882	0
bin	4.1978674100705	1
bin	4.5087520066528	1
bin	4.8196366032352	0
bin	5.1305211998175	0
bin	5.4414057963998	0
bin	5.7522903929822	0
bin	6.0631749895645	0
bin	6.3740595861468	0
bin	6.6849441827292	0
bin	6.9958287793115	0
scalar scenarioPRJP1.node[31].app 	sentPk:count 	612
attr interpolationmode  none
attr source  sentPk
attr title  "packets sent, count"
scalar scenarioPRJP1.node[31].app 	sentPk:sum(packetBytes) 	313344
attr interpolationmode  none
attr source  sentPk
attr title  "packets sent, sum(packetBytes)"
scalar scenarioPRJP1.node[31].udp 	droppedPkBadChecksum:count 	0
attr interpolationmode  none
attr title  "packets dropped (checksum error), count"
scalar scenarioPRJP1.node[31].udp 	droppedPkWrongPort:count 	0
attr interpolationmode  none
attr title  "packets dropped (wrong port), count"
scalar scenarioPRJP1.node[31].udp 	passedUpPk:count 	36
attr interpolationmode  none
attr title  "packets passed up, count"
scalar scenarioPRJP1.node[31].udp 	rcvdPk:count 	36
attr interpolationmode  none
attr source  rcvdPk
attr title  "packets received, count"
scalar scenarioPRJP1.node[31].udp 	rcvdPk:sum(packetBytes) 	18720
attr interpolationmode  none
attr source  rcvdPk
attr title  "packets received, sum(packetBytes)"
scalar scenarioPRJP1.node[31].udp 	sentPk:count 	612
attr interpolationmode  none
attr source  sentPk
attr title  "packets sent, count"
scalar scenarioPRJP1.node[31].udp 	sentPk:sum(packetBytes) 	318240
attr interpolationmode  none
attr source  sentPk
attr title  "packets sent, sum(packetBytes)"
scalar scenarioPRJP1.node[31].networkLayer.arp 	failedARPResolution:count 	99
attr title  "ARP failed resolutions, count"
scalar scenarioPRJP1.node[31].networkLayer.arp 	completedARPResolution:count 	1069
attr title  "ARP completed resolutions, count"
scalar scenarioPRJP1.node[31].networkLayer.arp 	initiatedARPResolution:count 	131
attr title  "ARP initiated resolutions, count"
scalar scenarioPRJP1.node[31].networkLayer.arp 	sentReply:count 	13
attr title  "ARP replies sent, count"
scalar scenarioPRJP1.node[31].networkLayer.arp 	sentReq:count 	351
attr title  "ARP request sent, count"
scalar scenarioPRJP1.node[31].mobility 	startTime 	2.5
scalar scenarioPRJP1.node[31].mobility 	totalTime 	243.9
scalar scenarioPRJP1.node[31].mobility 	stopTime 	246.5
scalar scenarioPRJP1.node[31].mobility 	minSpeed 	2.4758416305094e-13
scalar scenarioPRJP1.node[31].mobility 	maxSpeed 	17.701097332104
scalar scenarioPRJP1.node[31].mobility 	totalDistance 	2233.7974713727
scalar scenarioPRJP1.node[31].mobility 	totalCO2Emission 	657.66010311636
scalar scenarioPRJP1.node[31].wlan.mgmt 	dataQueueLen:max 	3
attr interpolationmode  sample-hold
attr title  "data queue length, max"
scalar scenarioPRJP1.node[31].wlan.mgmt 	dataQueueLen:timeavg 	0
attr interpolationmode  sample-hold
attr title  "data queue length, timeavg"
scalar scenarioPRJP1.node[31].wlan.mgmt 	dropPkByQueue:count 	0
attr interpolationmode  none
attr source  dropPkByQueue
attr title  "packets dropped by queue, count"
scalar scenarioPRJP1.node[31].wlan.mgmt 	dropPkByQueue:sum(packetBytes) 	0
attr interpolationmode  none
attr source  dropPkByQueue
attr title  "packets dropped by queue, sum(packetBytes)"
scalar scenarioPRJP1.node[31].wlan.mac 	"number of received packets" 	721
scalar scenarioPRJP1.node[31].wlan.mac 	"number of collisions" 	23220
scalar scenarioPRJP1.node[31].wlan.mac 	"number of internal collisions" 	0
scalar scenarioPRJP1.node[31].wlan.mac 	"number of retry for AC 0" 	3130
scalar scenarioPRJP1.node[31].wlan.mac 	"number of retry for AC 1" 	0
scalar scenarioPRJP1.node[31].wlan.mac 	"number of retry for AC 2" 	0
scalar scenarioPRJP1.node[31].wlan.mac 	"number of retry for AC 3" 	0
scalar scenarioPRJP1.node[31].wlan.mac 	"sent and received bits" 	11978480
scalar scenarioPRJP1.node[31].wlan.mac 	"sent packet within AC 0" 	495
scalar scenarioPRJP1.node[31].wlan.mac 	"sent packet within AC 1" 	0
scalar scenarioPRJP1.node[31].wlan.mac 	"sent packet within AC 2" 	0
scalar scenarioPRJP1.node[31].wlan.mac 	"sent packet within AC 3" 	0
scalar scenarioPRJP1.node[31].wlan.mac 	"sent in TXOP " 	0
scalar scenarioPRJP1.node[31].wlan.mac 	"sentWithoutRetry AC 0" 	352
scalar scenarioPRJP1.node[31].wlan.mac 	"sentWithoutRetry AC 1" 	0
scalar scenarioPRJP1.node[31].wlan.mac 	"sentWithoutRetry AC 2" 	0
scalar scenarioPRJP1.node[31].wlan.mac 	"sentWithoutRetry AC 3" 	0
scalar scenarioPRJP1.node[31].wlan.mac 	"numGivenUp AC 0" 	465
scalar scenarioPRJP1.node[31].wlan.mac 	"numGivenUp AC 1" 	0
scalar scenarioPRJP1.node[31].wlan.mac 	"numGivenUp AC 2" 	0
scalar scenarioPRJP1.node[31].wlan.mac 	"numGivenUp AC 3" 	0
scalar scenarioPRJP1.node[31].wlan.mac 	"numDropped AC 0" 	0
scalar scenarioPRJP1.node[31].wlan.mac 	"numDropped AC 1" 	0
scalar scenarioPRJP1.node[31].wlan.mac 	"numDropped AC 2" 	0
scalar scenarioPRJP1.node[31].wlan.mac 	"numDropped AC 3" 	0
scalar scenarioPRJP1.node[31].wlan.mac 	rcvdPkFromLL:count 	52247
attr interpolationmode  none
attr source  packetReceivedFromLower
attr title  "packets received from lower layer, count"
scalar scenarioPRJP1.node[31].wlan.mac 	rcvdPkFromLL:sum(packetBytes) 	20956975
attr interpolationmode  none
attr source  packetReceivedFromLower
attr title  "packets received from lower layer, sum(packetBytes)"
scalar scenarioPRJP1.node[31].wlan.mac 	sentDownPk:count 	8731
attr interpolationmode  none
attr source  packetSentToLower
attr title  "packets sent to lower layer, count"
scalar scenarioPRJP1.node[31].wlan.mac 	sentDownPk:sum(packetBytes) 	3497624
attr interpolationmode  none
attr source  packetSentToLower
attr title  "packets sent to lower layer, sum(packetBytes)"
scalar scenarioPRJP1.node[31].wlan.mac 	rcvdPkFromHL:count 	4880
attr interpolationmode  none
attr source  packetReceivedFromUpper
attr title  "packets received from higher layer, count"
scalar scenarioPRJP1.node[31].wlan.mac 	rcvdPkFromHL:sum(packetBytes) 	1753793
attr interpolationmode  none
attr source  packetReceivedFromUpper
attr title  "packets received from higher layer, sum(packetBytes)"
scalar scenarioPRJP1.node[31].wlan.mac 	passedUpPk:count 	13087
attr interpolationmode  none
attr source  packetSentToUpper
attr title  "packets passed to higher layer, count"
scalar scenarioPRJP1.node[31].wlan.mac 	passedUpPk:sum(packetBytes) 	4250862
attr interpolationmode  none
attr source  packetSentToUpper
attr title  "packets passed to higher layer, sum(packetBytes)"
statistic scenarioPRJP1.node[31].wlan.radio 	radioChannel:histogram
field count 1
field mean 3
field stddev -nan
field sum 3
field sqrsum 9
field min 3
field max 3
attr interpolationmode  sample-hold
attr source  radioChannelChanged
attr title  "Radio channel, histogram"
bin	-INF	0
bin	2	0
bin	3	1
bin	4	0
scalar scenarioPRJP1.node[31].wlan.radio 	transmissionState:count 	34924
attr interpolationmode  sample-hold
attr source  transmissionStateChanged
attr title  "Radio transmission state, count"
scalar scenarioPRJP1.node[31].wlan.radio 	receptionState:count 	136360
attr interpolationmode  sample-hold
attr source  receptionStateChanged
attr title  "Radio reception state, count"
scalar scenarioPRJP1.node[31].wlan.radio 	radioMode:count 	17464
attr interpolationmode  sample-hold
attr source  radioModeChanged
attr title  "Radio mode, count"
statistic scenarioPRJP1.node[31].wlan.radio 	symbolErrorRate:histogram
field count 0
field mean -nan
field stddev -nan
field sum 0
field sqrsum 0
field min -nan
field max -nan
attr source  symbolErrorRate
attr title  "Symbol error rate, histogram"
bin	-INF	0
bin	-0.5	0
bin	-0.46666666666667	0
bin	-0.43333333333333	0
bin	-0.4	0
bin	-0.36666666666667	0
bin	-0.33333333333333	0
bin	-0.3	0
bin	-0.26666666666667	0
bin	-0.23333333333333	0
bin	-0.2	0
bin	-0.16666666666667	0
bin	-0.13333333333333	0
bin	-0.1	0
bin	-0.066666666666667	0
bin	-0.033333333333333	0
bin	0	0
bin	0.033333333333333	0
bin	0.066666666666667	0
bin	0.1	0
bin	0.13333333333333	0
bin	0.16666666666667	0
bin	0.2	0
bin	0.23333333333333	0
bin	0.26666666666667	0
bin	0.3	0
bin	0.33333333333333	0
bin	0.36666666666667	0
bin	0.4	0
bin	0.43333333333333	0
bin	0.46666666666667	0
bin	0.5	0
statistic scenarioPRJP1.node[31].wlan.radio 	bitErrorRate:histogram
field count 0
field mean -nan
field stddev -nan
field sum 0
field sqrsum 0
field min -nan
field max -nan
attr source  bitErrorRate
attr title  "Bit error rate, histogram"
bin	-INF	0
bin	-0.5	0
bin	-0.46666666666667	0
bin	-0.43333333333333	0
bin	-0.4	0
bin	-0.36666666666667	0
bin	-0.33333333333333	0
bin	-0.3	0
bin	-0.26666666666667	0
bin	-0.23333333333333	0
bin	-0.2	0
bin	-0.16666666666667	0
bin	-0.13333333333333	0
bin	-0.1	0
bin	-0.066666666666667	0
bin	-0.033333333333333	0
bin	0	0
bin	0.033333333333333	0
bin	0.066666666666667	0
bin	0.1	0
bin	0.13333333333333	0
bin	0.16666666666667	0
bin	0.2	0
bin	0.23333333333333	0
bin	0.26666666666667	0
bin	0.3	0
bin	0.33333333333333	0
bin	0.36666666666667	0
bin	0.4	0
bin	0.43333333333333	0
bin	0.46666666666667	0
bin	0.5	0
statistic scenarioPRJP1.node[31].wlan.radio 	packetErrorRate:histogram
field count 52247
field mean 0.41563057318251
field stddev 0.48375818593307
field sum 21715.450557066
field sqrsum 21252.317657412
field min 0
field max 1
attr source  packetErrorRate
attr title  "Packet error rate, histogram"
bin	-INF	0
bin	-0.5	0
bin	-0.43333333333333	0
bin	-0.36666666666667	0
bin	-0.3	0
bin	-0.23333333333333	0
bin	-0.16666666666667	0
bin	-0.1	0
bin	-0.033333333333333	28683
bin	0.033333333333333	702
bin	0.1	348
bin	0.16666666666667	264
bin	0.23333333333333	223
bin	0.3	185
bin	0.36666666666667	151
bin	0.43333333333333	142
bin	0.5	115
bin	0.56666666666667	112
bin	0.63333333333333	119
bin	0.7	119
bin	0.76666666666667	141
bin	0.83333333333333	181
bin	0.9	224
bin	0.96666666666667	20538
bin	1.0333333333333	0
bin	1.1	0
bin	1.1666666666667	0
bin	1.2333333333333	0
bin	1.3	0
bin	1.3666666666667	0
bin	1.4333333333333	0
bin	1.5	0
statistic scenarioPRJP1.node[31].wlan.radio 	minSNIR:histogram
field count 52247
field mean 664.46715840628
field stddev 8338.6153571786
field sum 34716415.625253
field sqrsum 3655863230433.7
field min 7.652362936681e-05
field max 509404.66583508
attr source  minSNIR
attr title  "Min SNIR, histogram"
bin	-INF	0
bin	-14950.252492315	0
bin	-12956.868322474	0
bin	-10963.484152633	0
bin	-8970.099982791	0
bin	-6976.7158129496	0
bin	-4983.3316431081	0
bin	-2989.9474732666	0
bin	-996.5633034251	48907
bin	996.82086641638	1988
bin	2990.2050362579	513
bin	4983.5892060993	217
bin	6976.9733759408	125
bin	8970.3575457823	90
bin	10963.741715624	47
bin	12957.125885465	45
bin	14950.510055307	37
bin	16943.894225148	25
bin	18937.27839499	17
bin	20930.662564831	13
bin	22924.046734673	19
bin	24917.430904514	10
bin	26910.815074356	9
bin	28904.199244197	9
bin	30897.583414039	7
bin	32890.96758388	7
bin	34884.351753722	5
bin	36877.735923563	5
bin	38871.120093405	9
bin	40864.504263246	9
bin	42857.888433088	4
bin	44851.272602929	130
scalar scenarioPRJP1.node[31].lo0.lo 	droppedPkBitError:count 	0
attr interpolationmode  none
attr source  dropPkBitError
attr title  "packets dropped/bit error, count"
scalar scenarioPRJP1.node[31].lo0.lo 	droppedPkBitError:sum(packetBytes) 	0
attr interpolationmode  none
attr source  dropPkBitError
attr title  "packets dropped/bit error, sum(packetBytes)"
scalar scenarioPRJP1.node[31].lo0.lo 	rcvdPkFromHL:count 	0
attr interpolationmode  none
attr source  packetReceivedFromUpper
attr title  "packets received from higher layer, count"
scalar scenarioPRJP1.node[31].lo0.lo 	rcvdPkFromHL:sum(packetBytes) 	0
attr interpolationmode  none
attr source  packetReceivedFromUpper
attr title  "packets received from higher layer, sum(packetBytes)"
scalar scenarioPRJP1.node[31].lo0.lo 	passedUpPk:count 	0
attr interpolationmode  none
attr source  packetSentToUpper
attr title  "packets passed to higher layer, count"
scalar scenarioPRJP1.node[31].lo0.lo 	passedUpPk:sum(packetBytes) 	0
attr interpolationmode  none
attr source  packetSentToUpper
attr title  "packets passed to higher layer, sum(packetBytes)"
scalar scenarioPRJP1.node[82].app 	"Total sent" 	720
scalar scenarioPRJP1.node[82].app 	"Total received" 	37
scalar scenarioPRJP1.node[82].app 	"Total deleted" 	0
scalar scenarioPRJP1.node[82].app 	dropPk:count 	0
attr interpolationmode  none
attr source  dropPk
attr title  "packets dropped, count"
scalar scenarioPRJP1.node[82].app 	dropPk:sum(packetBytes) 	0
attr interpolationmode  none
attr source  dropPk
attr title  "packets dropped, sum(packetBytes)"
scalar scenarioPRJP1.node[82].app 	outOfOrderPk:count 	0
attr interpolationmode  none
attr source  outOfOrderPk
attr title  "packets received out of order, count"
scalar scenarioPRJP1.node[82].app 	outOfOrderPk:sum(packetBytes) 	0
attr interpolationmode  none
attr source  outOfOrderPk
attr title  "packets received out of order, sum(packetBytes)"
scalar scenarioPRJP1.node[82].app 	rcvdPk:count 	37
attr interpolationmode  none
attr source  rcvdPk
attr title  "packets received, count"
scalar scenarioPRJP1.node[82].app 	rcvdPk:sum(packetBytes) 	18944
attr interpolationmode  none
attr source  rcvdPk
attr title  "packets received, sum(packetBytes)"
statistic scenarioPRJP1.node[82].app 	endToEndDelay:histogram
field count 37
field mean 1.0919748248282
field stddev 2.3636988951425
field sum 40.403068518643
field sqrsum 245.25374247648
field min 0.001049146787
field max 8.708608853648
attr interpolationmode  none
attr source  messageAge(rcvdPk)
attr title  "delay, histogram"
attr unit  s
bin	-INF	0
bin	-4.3527307066435	0
bin	-3.7722267261861	0
bin	-3.1917227457287	0
bin	-2.6112187652713	0
bin	-2.0307147848139	0
bin	-1.4502108043565	0
bin	-0.8697068238991	0
bin	-0.2892028434417	28
bin	0.2913011370157	0
bin	0.8718051174731	2
bin	1.4523090979305	1
bin	2.0328130783879	0
bin	2.6133170588453	1
bin	3.1938210393027	1
bin	3.7743250197601	0
bin	4.3548290002175	0
bin	4.9353329806749	0
bin	5.5158369611323	1
bin	6.0963409415897	0
bin	6.6768449220471	0
bin	7.2573489025045	2
bin	7.8378528829619	0
bin	8.4183568634193	1
bin	8.9988608438767	0
bin	9.5793648243341	0
bin	10.159868804792	0
bin	10.740372785249	0
bin	11.320876765706	0
bin	11.901380746164	0
bin	12.481884726621	0
bin	13.062388707079	0
scalar scenarioPRJP1.node[82].app 	sentPk:count 	720
attr interpolationmode  none
attr source  sentPk
attr title  "packets sent, count"
scalar scenarioPRJP1.node[82].app 	sentPk:sum(packetBytes) 	368640
attr interpolationmode  none
attr source  sentPk
attr title  "packets sent, sum(packetBytes)"
scalar scenarioPRJP1.node[82].udp 	droppedPkBadChecksum:count 	0
attr interpolationmode  none
attr title  "packets dropped (checksum error), count"
scalar scenarioPRJP1.node[82].udp 	droppedPkWrongPort:count 	0
attr interpolationmode  none
attr title  "packets dropped (wrong port), count"
scalar scenarioPRJP1.node[82].udp 	passedUpPk:count 	37
attr interpolationmode  none
attr title  "packets passed up, count"
scalar scenarioPRJP1.node[82].udp 	rcvdPk:count 	37
attr interpolationmode  none
attr source  rcvdPk
attr title  "packets received, count"
scalar scenarioPRJP1.node[82].udp 	rcvdPk:sum(packetBytes) 	19240
attr interpolationmode  none
attr source  rcvdPk
attr title  "packets received, sum(packetBytes)"
scalar scenarioPRJP1.node[82].udp 	sentPk:count 	720
attr interpolationmode  none
attr source  sentPk
attr title  "packets sent, count"
scalar scenarioPRJP1.node[82].udp 	sentPk:sum(packetBytes) 	374400
attr interpolationmode  none
attr source  sentPk
attr title  "packets sent, sum(packetBytes)"
scalar scenarioPRJP1.node[82].networkLayer.arp 	failedARPResolution:count 	102
attr title  "ARP failed resolutions, count"
scalar scenarioPRJP1.node[82].networkLayer.arp 	completedARPResolution:count 	1605
attr title  "ARP completed resolutions, count"
scalar scenarioPRJP1.node[82].networkLayer.arp 	initiatedARPResolution:count 	142
attr title  "ARP initiated resolutions, count"
scalar scenarioPRJP1.node[82].networkLayer.arp 	sentReply:count 	24
attr title  "ARP replies sent, count"
scalar scenarioPRJP1.node[82].networkLayer.arp 	sentReq:count 	368
attr title  "ARP request sent, count"
scalar scenarioPRJP1.node[82].mobility 	startTime 	9.7
scalar scenarioPRJP1.node[82].mobility 	totalTime 	275
scalar scenarioPRJP1.node[82].mobility 	stopTime 	284.8
scalar scenarioPRJP1.node[82].mobility 	minSpeed 	2.4756006180642e-13
scalar scenarioPRJP1.node[82].mobility 	maxSpeed 	16.555270924443
scalar scenarioPRJP1.node[82].mobility 	totalDistance 	2201.7352566152
scalar scenarioPRJP1.node[82].mobility 	totalCO2Emission 	677.24306367572
scalar scenarioPRJP1.node[82].wlan.mgmt 	dataQueueLen:max 	6
attr interpolationmode  sample-hold
attr title  "data queue length, max"
scalar scenarioPRJP1.node[82].wlan.mgmt 	dataQueueLen:timeavg 	0
attr interpolationmode  sample-hold
attr title  "data queue length, timeavg"
scalar scenarioPRJP1.node[82].wlan.mgmt 	dropPkByQueue:count 	0
attr interpolationmode  none
attr source  dropPkByQueue
attr title  "packets dropped by queue, count"
scalar scenarioPRJP1.node[82].wlan.mgmt 	dropPkByQueue:sum(packetBytes) 	0
attr interpolationmode  none
attr source  dropPkByQueue
attr title  "packets dropped by queue, sum(packetBytes)"
scalar scenarioPRJP1.node[82].wlan.mac 	"number of received packets" 	781
scalar scenarioPRJP1.node[82].wlan.mac 	"number of collisions" 	32764
scalar scenarioPRJP1.node[82].wlan.mac 	"number of internal collisions" 	0
scalar scenarioPRJP1.node[82].wlan.mac 	"number of retry for AC 0" 	3377
scalar scenarioPRJP1.node[82].wlan.mac 	"number of retry for AC 1" 	0
scalar scenarioPRJP1.node[82].wlan.mac 	"number of retry for AC 2" 	0
scalar scenarioPRJP1.node[82].wlan.mac 	"number of retry for AC 3" 	0
scalar scenarioPRJP1.node[82].wlan.mac 	"sent and received bits" 	13157464
scalar scenarioPRJP1.node[82].wlan.mac 	"sent packet within AC 0" 	554
scalar scenarioPRJP1.node[82].wlan.mac 	"sent packet within AC 1" 	0
scalar scenarioPRJP1.node[82].wlan.mac 	"sent packet within AC 2" 	0
scalar scenarioPRJP1.node[82].wlan.mac 	"sent packet within AC 3" 	0
scalar scenarioPRJP1.node[82].wlan.mac 	"sent in TXOP " 	0
scalar scenarioPRJP1.node[82].wlan.mac 	"sentWithoutRetry AC 0" 	434
scalar scenarioPRJP1.node[82].wlan.mac 	"sentWithoutRetry AC 1" 	0
scalar scenarioPRJP1.node[82].wlan.mac 	"sentWithoutRetry AC 2" 	0
scalar scenarioPRJP1.node[82].wlan.mac 	"sentWithoutRetry AC 3" 	0
scalar scenarioPRJP1.node[82].wlan.mac 	"numGivenUp AC 0" 	517
scalar scenarioPRJP1.node[82].wlan.mac 	"numGivenUp AC 1" 	0
scalar scenarioPRJP1.node[82].wlan.mac 	"numGivenUp AC 2" 	0
scalar scenarioPRJP1.node[82].wlan.mac 	"numGivenUp AC 3" 	0
scalar scenarioPRJP1.node[82].wlan.mac 	"numDropped AC 0" 	0
scalar scenarioPRJP1.node[82].wlan.mac 	"numDropped AC 1" 	0
scalar scenarioPRJP1.node[82].wlan.mac 	"numDropped AC 2" 	0
scalar scenarioPRJP1.node[82].wlan.mac 	"numDropped AC 3" 	0
scalar scenarioPRJP1.node[82].wlan.mac 	rcvdPkFromLL:count 	74776
attr interpolationmode  none
attr source  packetReceivedFromLower
attr title  "packets received from lower layer, count"
scalar scenarioPRJP1.node[82].wlan.mac 	rcvdPkFromLL:sum(packetBytes) 	28853993
attr interpolationmode  none
attr source  packetReceivedFromLower
attr title  "packets received from lower layer, sum(packetBytes)"
scalar scenarioPRJP1.node[82].wlan.mac 	sentDownPk:count 	9802
attr interpolationmode  none
attr source  packetSentToLower
attr title  "packets sent to lower layer, count"
scalar scenarioPRJP1.node[82].wlan.mac 	sentDownPk:sum(packetBytes) 	3784491
attr interpolationmode  none
attr source  packetSentToLower
attr title  "packets sent to lower layer, sum(packetBytes)"
scalar scenarioPRJP1.node[82].wlan.mac 	rcvdPkFromHL:count 	5644
attr interpolationmode  none
attr source  packetReceivedFromUpper
attr title  "packets received from higher layer, count"
scalar scenarioPRJP1.node[82].wlan.mac 	rcvdPkFromHL:sum(packetBytes) 	1926394
attr interpolationmode  none
attr source  packetReceivedFromUpper
attr title  "packets received from higher layer, sum(packetBytes)"
scalar scenarioPRJP1.node[82].wlan.mac 	passedUpPk:count 	19485
attr interpolationmode  none
attr source  packetSentToUpper
attr title  "packets passed to higher layer, count"
scalar scenarioPRJP1.node[82].wlan.mac 	passedUpPk:sum(packetBytes) 	5667782
attr interpolationmode  none
attr source  packetSentToUpper
attr title  "packets passed to higher layer, sum(packetBytes)"
statistic scenarioPRJP1.node[82].wlan.radio 	radioChannel:histogram
field count 1
field mean 3
field stddev -nan
field sum 3
field sqrsum 9
field min 3
field max 3
attr interpolationmode  sample-hold
attr source  radioChannelChanged
attr title  "Radio channel, histogram"
bin	-INF	0
bin	2	0
bin	3	1
bin	4	0
scalar scenarioPRJP1.node[82].wlan.radio 	transmissionState:count 	39208
attr interpolationmode  sample-hold
attr source  transmissionStateChanged
attr title  "Radio transmission state, count"
scalar scenarioPRJP1.node[82].wlan.radio 	receptionState:count 	191176
attr interpolationmode  sample-hold
attr source  receptionStateChanged
attr title  "Radio reception state, count"
scalar scenarioPRJP1.node[82].wlan.radio 	radioMode:count 	19606
attr interpolationmode  sample-hold
attr source  radioModeChanged
attr title  "Radio mode, count"
statistic scenarioPRJP1.node[82].wlan.radio 	symbolErrorRate:histogram
field count 0
field mean -nan
field stddev -nan
field sum 0
field sqrsum 0
field min -nan
field max -nan
attr source  symbolErrorRate
attr title  "Symbol error rate, histogram"
bin	-INF	0
bin	-0.5	0
bin	-0.46666666666667	0
bin	-0.43333333333333	0
bin	-0.4	0
bin	-0.36666666666667	0
bin	-0.33333333333333	0
bin	-0.3	0
bin	-0.26666666666667	0
bin	-0.23333333333333	0
bin	-0.2	0
bin	-0.16666666666667	0
bin	-0.13333333333333	0
bin	-0.1	0
bin	-0.066666666666667	0
bin	-0.033333333333333	0
[...]
scalar scenarioPRJP1.node[77].wlan.mac 	passedUpPk:count 	48088
attr interpolationmode  none
attr source  packetSentToUpper
attr title  "packets passed to higher layer, count"
scalar scenarioPRJP1.node[77].wlan.mac 	passedUpPk:sum(packetBytes) 	14820283
attr interpolationmode  none
attr source  packetSentToUpper
attr title  "packets passed to higher layer, sum(packetBytes)"
statistic scenarioPRJP1.node[77].wlan.radio 	radioChannel:histogram
field count 1
field mean 3
field stddev -nan
field sum 3
field sqrsum 9
field min 3
field max 3
attr interpolationmode  sample-hold
attr source  radioChannelChanged
attr title  "Radio channel, histogram"
bin	-INF	0
bin	2	0
bin	3	1
bin	4	0
scalar scenarioPRJP1.node[77].wlan.radio 	transmissionState:count 	144640
attr interpolationmode  sample-hold
attr source  transmissionStateChanged
attr title  "Radio transmission state, count"
scalar scenarioPRJP1.node[77].wlan.radio 	receptionState:count 	559173
attr interpolationmode  sample-hold
attr source  receptionStateChanged
attr title  "Radio reception state, count"
scalar scenarioPRJP1.node[77].wlan.radio 	radioMode:count 	72322
attr interpolationmode  sample-hold
attr source  radioModeChanged
attr title  "Radio mode, count"
statistic scenarioPRJP1.node[77].wlan.radio 	symbolErrorRate:histogram
field count 0
field mean -nan
field stddev -nan
field sum 0
field sqrsum 0
field min -nan
field max -nan
attr source  symbolErrorRate
attr title  "Symbol error rate, histogram"
bin	-INF	0
bin	-0.5	0
bin	-0.46666666666667	0
bin	-0.43333333333333	0
bin	-0.4	0
bin	-0.36666666666667	0
bin	-0.33333333333333	0
bin	-0.3	0
bin	-0.26666666666667	0
bin	-0.23333333333333	0
bin	-0.2	0
bin	-0.16666666666667	0
bin	-0.13333333333333	0
bin	-0.1	0
bin	-0.066666666666667	0
bin	-0.033333333333333	0
bin	0	0
bin	0.033333333333333	0
bin	0.066666666666667	0
bin	0.1	0
bin	0.13333333333333	0
bin	0.16666666666667	0
bin	0.2	0
bin	0.23333333333333	0
bin	0.26666666666667	0
bin	0.3	0
bin	0.33333333333333	0
bin	0.36666666666667	0
bin	0.4	0
bin	0.43333333333333	0
bin	0.46666666666667	0
bin	0.5	0
statistic scenarioPRJP1.node[77].wlan.radio 	bitErrorRate:histogram
field count 0
field mean -nan
field stddev -nan
field sum 0
field sqrsum 0
field min -nan
field max -nan
attr source  bitErrorRate
attr title  "Bit error rate, histogram"
bin	-INF	0
bin	-0.5	0
bin	-0.46666666666667	0
bin	-0.43333333333333	0
bin	-0.4	0
bin	-0.36666666666667	0
bin	-0.33333333333333	0
bin	-0.3	0
bin	-0.26666666666667	0
bin	-0.23333333333333	0
bin	-0.2	0
bin	-0.16666666666667	0
bin	-0.13333333333333	0
bin	-0.1	0
bin	-0.066666666666667	0
bin	-0.033333333333333	0
bin	0	0
bin	0.033333333333333	0
bin	0.066666666666667	0
bin	0.1	0
bin	0.13333333333333	0
bin	0.16666666666667	0
bin	0.2	0
bin	0.23333333333333	0
bin	0.26666666666667	0
bin	0.3	0
bin	0.33333333333333	0
bin	0.36666666666667	0
bin	0.4	0
bin	0.43333333333333	0
bin	0.46666666666667	0
bin	0.5	0
statistic scenarioPRJP1.node[77].wlan.radio 	packetErrorRate:histogram
field count 209386
field mean 0.45640526484977
field stddev 0.48831965294946
field sum 95564.872785834
field sqrsum 93545.438108731
field min 0
field max 1
attr source  packetErrorRate
attr title  "Packet error rate, histogram"
bin	-INF	0
bin	-0.5	0
bin	-0.43333333333333	0
bin	-0.36666666666667	0
bin	-0.3	0
bin	-0.23333333333333	0
bin	-0.16666666666667	0
bin	-0.1	0
bin	-0.033333333333333	105725
bin	0.033333333333333	3180
bin	0.1	1518
bin	0.16666666666667	1127
bin	0.23333333333333	902
bin	0.3	759
bin	0.36666666666667	652
bin	0.43333333333333	596
bin	0.5	525
bin	0.56666666666667	574
bin	0.63333333333333	512
bin	0.7	545
bin	0.76666666666667	575
bin	0.83333333333333	753
bin	0.9	1130
bin	0.96666666666667	90313
bin	1.0333333333333	0
bin	1.1	0
bin	1.1666666666667	0
bin	1.2333333333333	0
bin	1.3	0
bin	1.3666666666667	0
bin	1.4333333333333	0
bin	1.5	0
statistic scenarioPRJP1.node[77].wlan.radio 	minSNIR:histogram
field count 209386
field mean 474.68418800827
field stddev 9036.146503115
field sum 99392223.390301
field sqrsum 17143872132934
field min 7.5022874766419e-05
field max 886709.2926342
attr source  minSNIR
attr title  "Min SNIR, histogram"
bin	-INF	0
bin	-19457.471799472	0
bin	-16863.140084498	0
bin	-14268.808369525	0
bin	-11674.476654551	0
bin	-9080.144939577	0
bin	-6485.8132246033	0
bin	-3891.4815096295	0
bin	-1297.1497946558	203454
bin	1297.181920318	3506
bin	3891.5136352917	818
bin	6485.8453502655	370
bin	9080.1770652392	232
bin	11674.508780213	140
bin	14268.840495187	106
bin	16863.17221016	65
bin	19457.503925134	71
bin	22051.835640108	46
bin	24646.167355082	50
bin	27240.499070055	30
bin	29834.830785029	32
bin	32429.162500003	19
bin	35023.494214977	26
bin	37617.82592995	28
bin	40212.157644924	22
bin	42806.489359898	29
bin	45400.821074872	12
bin	47995.152789845	10
bin	50589.484504819	7
bin	53183.816219793	15
bin	55778.147934767	7
bin	58372.47964974	291
scalar scenarioPRJP1.node[77].lo0.lo 	droppedPkBitError:count 	0
attr interpolationmode  none
attr source  dropPkBitError
attr title  "packets dropped/bit error, count"
scalar scenarioPRJP1.node[77].lo0.lo 	droppedPkBitError:sum(packetBytes) 	0
attr interpolationmode  none
attr source  dropPkBitError
attr title  "packets dropped/bit error, sum(packetBytes)"
scalar scenarioPRJP1.node[77].lo0.lo 	rcvdPkFromHL:count 	0
attr interpolationmode  none
attr source  packetReceivedFromUpper
attr title  "packets received from higher layer, count"
scalar scenarioPRJP1.node[77].lo0.lo 	rcvdPkFromHL:sum(packetBytes) 	0
attr interpolationmode  none
attr source  packetReceivedFromUpper
attr title  "packets received from higher layer, sum(packetBytes)"
scalar scenarioPRJP1.node[77].lo0.lo 	passedUpPk:count 	0
attr interpolationmode  none
attr source  packetSentToUpper
attr title  "packets passed to higher layer, count"
scalar scenarioPRJP1.node[77].lo0.lo 	passedUpPk:sum(packetBytes) 	0
attr interpolationmode  none
attr source  packetSentToUpper
attr title  "packets passed to higher layer, sum(packetBytes)"
scalar scenarioPRJP1.node[97].app 	"Total sent" 	2608
scalar scenarioPRJP1.node[97].app 	"Total received" 	143
scalar scenarioPRJP1.node[97].app 	"Total deleted" 	0
scalar scenarioPRJP1.node[97].app 	dropPk:count 	0
attr interpolationmode  none
attr source  dropPk
attr title  "packets dropped, count"
scalar scenarioPRJP1.node[97].app 	dropPk:sum(packetBytes) 	0
attr interpolationmode  none
attr source  dropPk
attr title  "packets dropped, sum(packetBytes)"
scalar scenarioPRJP1.node[97].app 	outOfOrderPk:count 	0
attr interpolationmode  none
attr source  outOfOrderPk
attr title  "packets received out of order, count"
scalar scenarioPRJP1.node[97].app 	outOfOrderPk:sum(packetBytes) 	0
attr interpolationmode  none
attr source  outOfOrderPk
attr title  "packets received out of order, sum(packetBytes)"
scalar scenarioPRJP1.node[97].app 	rcvdPk:count 	143
attr interpolationmode  none
attr source  rcvdPk
attr title  "packets received, count"
scalar scenarioPRJP1.node[97].app 	rcvdPk:sum(packetBytes) 	73216
attr interpolationmode  none
attr source  rcvdPk
attr title  "packets received, sum(packetBytes)"
statistic scenarioPRJP1.node[97].app 	endToEndDelay:histogram
field count 143
field mean 0.74340877233186
field stddev 1.6844659934589
field sum 106.30745444346
field sqrsum 481.94434120048
field min 0.000945068754
field max 10.918564243747
attr interpolationmode  none
attr source  messageAge(rcvdPk)
attr title  "delay, histogram"
attr unit  s
bin	-INF	0
bin	-5.457727763327	0
bin	-4.7298925630126	0
bin	-4.0020573626982	0
bin	-3.2742221623838	0
bin	-2.5463869620694	0
bin	-1.818551761755	0
bin	-1.0907165614406	0
bin	-0.3628813611262	101
bin	0.3649538391882	11
bin	1.0927890395026	10
bin	1.820624239817	10
bin	2.5484594401314	3
bin	3.2762946404458	1
bin	4.0041298407602	3
bin	4.7319650410746	1
bin	5.459800241389	0
bin	6.1876354417034	0
bin	6.9154706420178	0
bin	7.6433058423322	1
bin	8.3711410426466	0
bin	9.098976242961	0
bin	9.8268114432754	1
bin	10.55464664359	1
bin	11.282481843904	0
bin	12.010317044219	0
bin	12.738152244533	0
bin	13.465987444847	0
bin	14.193822645162	0
bin	14.921657845476	0
bin	15.649493045791	0
bin	16.377328246105	0
scalar scenarioPRJP1.node[97].app 	sentPk:count 	2608
attr interpolationmode  none
attr source  sentPk
attr title  "packets sent, count"
scalar scenarioPRJP1.node[97].app 	sentPk:sum(packetBytes) 	1335296
attr interpolationmode  none
attr source  sentPk
attr title  "packets sent, sum(packetBytes)"
scalar scenarioPRJP1.node[97].udp 	droppedPkBadChecksum:count 	0
attr interpolationmode  none
attr title  "packets dropped (checksum error), count"
scalar scenarioPRJP1.node[97].udp 	droppedPkWrongPort:count 	0
attr interpolationmode  none
attr title  "packets dropped (wrong port), count"
scalar scenarioPRJP1.node[97].udp 	passedUpPk:count 	143
attr interpolationmode  none
attr title  "packets passed up, count"
scalar scenarioPRJP1.node[97].udp 	rcvdPk:count 	143
attr interpolationmode  none
attr source  rcvdPk
attr title  "packets received, count"
scalar scenarioPRJP1.node[97].udp 	rcvdPk:sum(packetBytes) 	74360
attr interpolationmode  none
attr source  rcvdPk
attr title  "packets received, sum(packetBytes)"
scalar scenarioPRJP1.node[97].udp 	sentPk:count 	2608
attr interpolationmode  none
attr source  sentPk
attr title  "packets sent, count"
scalar scenarioPRJP1.node[97].udp 	sentPk:sum(packetBytes) 	1356160
attr interpolationmode  none
attr source  sentPk
attr title  "packets sent, sum(packetBytes)"
scalar scenarioPRJP1.node[97].networkLayer.arp 	failedARPResolution:count 	240
attr title  "ARP failed resolutions, count"
scalar scenarioPRJP1.node[97].networkLayer.arp 	completedARPResolution:count 	3515
attr title  "ARP completed resolutions, count"
scalar scenarioPRJP1.node[97].networkLayer.arp 	initiatedARPResolution:count 	344
attr title  "ARP initiated resolutions, count"
scalar scenarioPRJP1.node[97].networkLayer.arp 	sentReply:count 	65
attr title  "ARP replies sent, count"
scalar scenarioPRJP1.node[97].networkLayer.arp 	sentReq:count 	891
attr title  "ARP request sent, count"
scalar scenarioPRJP1.node[97].mobility 	startTime 	9.8
scalar scenarioPRJP1.node[97].mobility 	totalTime 	940.2
scalar scenarioPRJP1.node[97].mobility 	stopTime 	950
scalar scenarioPRJP1.node[97].mobility 	minSpeed 	2.4756582349751e-13
scalar scenarioPRJP1.node[97].mobility 	maxSpeed 	18.102778257459
scalar scenarioPRJP1.node[97].mobility 	totalDistance 	8555.3861014482
scalar scenarioPRJP1.node[97].mobility 	totalCO2Emission 	2450.4262584782
scalar scenarioPRJP1.node[97].wlan.mgmt 	dataQueueLen:max 	9
attr interpolationmode  sample-hold
attr title  "data queue length, max"
scalar scenarioPRJP1.node[97].wlan.mgmt 	dataQueueLen:timeavg 	0
attr interpolationmode  sample-hold
attr title  "data queue length, timeavg"
scalar scenarioPRJP1.node[97].wlan.mgmt 	dropPkByQueue:count 	0
attr interpolationmode  none
attr source  dropPkByQueue
attr title  "packets dropped by queue, count"
scalar scenarioPRJP1.node[97].wlan.mgmt 	dropPkByQueue:sum(packetBytes) 	0
attr interpolationmode  none
attr source  dropPkByQueue
attr title  "packets dropped by queue, sum(packetBytes)"
scalar scenarioPRJP1.node[97].wlan.mac 	"number of received packets" 	2717
scalar scenarioPRJP1.node[97].wlan.mac 	"number of collisions" 	112597
scalar scenarioPRJP1.node[97].wlan.mac 	"number of internal collisions" 	0
scalar scenarioPRJP1.node[97].wlan.mac 	"number of retry for AC 0" 	14845
scalar scenarioPRJP1.node[97].wlan.mac 	"number of retry for AC 1" 	0
scalar scenarioPRJP1.node[97].wlan.mac 	"number of retry for AC 2" 	0
scalar scenarioPRJP1.node[97].wlan.mac 	"number of retry for AC 3" 	0
scalar scenarioPRJP1.node[97].wlan.mac 	"sent and received bits" 	44717856
scalar scenarioPRJP1.node[97].wlan.mac 	"sent packet within AC 0" 	1620
scalar scenarioPRJP1.node[97].wlan.mac 	"sent packet within AC 1" 	2
scalar scenarioPRJP1.node[97].wlan.mac 	"sent packet within AC 2" 	0
scalar scenarioPRJP1.node[97].wlan.mac 	"sent packet within AC 3" 	0
scalar scenarioPRJP1.node[97].wlan.mac 	"sent in TXOP " 	0
scalar scenarioPRJP1.node[97].wlan.mac 	"sentWithoutRetry AC 0" 	1036
scalar scenarioPRJP1.node[97].wlan.mac 	"sentWithoutRetry AC 1" 	2
scalar scenarioPRJP1.node[97].wlan.mac 	"sentWithoutRetry AC 2" 	0
scalar scenarioPRJP1.node[97].wlan.mac 	"sentWithoutRetry AC 3" 	0
scalar scenarioPRJP1.node[97].wlan.mac 	"numGivenUp AC 0" 	2233
scalar scenarioPRJP1.node[97].wlan.mac 	"numGivenUp AC 1" 	0
scalar scenarioPRJP1.node[97].wlan.mac 	"numGivenUp AC 2" 	0
scalar scenarioPRJP1.node[97].wlan.mac 	"numGivenUp AC 3" 	0
scalar scenarioPRJP1.node[97].wlan.mac 	"numDropped AC 0" 	0
scalar scenarioPRJP1.node[97].wlan.mac 	"numDropped AC 1" 	0
scalar scenarioPRJP1.node[97].wlan.mac 	"numDropped AC 2" 	0
scalar scenarioPRJP1.node[97].wlan.mac 	"numDropped AC 3" 	0
scalar scenarioPRJP1.node[97].wlan.mac 	rcvdPkFromLL:count 	234232
attr interpolationmode  none
attr source  packetReceivedFromLower
attr title  "packets received from lower layer, count"
scalar scenarioPRJP1.node[97].wlan.mac 	rcvdPkFromLL:sum(packetBytes) 	93249701
attr interpolationmode  none
attr source  packetReceivedFromLower
attr title  "packets received from lower layer, sum(packetBytes)"
scalar scenarioPRJP1.node[97].wlan.mac 	sentDownPk:count 	37192
attr interpolationmode  none
attr source  packetSentToLower
attr title  "packets sent to lower layer, count"
scalar scenarioPRJP1.node[97].wlan.mac 	sentDownPk:sum(packetBytes) 	15096618
attr interpolationmode  none
attr source  packetSentToLower
attr title  "packets sent to lower layer, sum(packetBytes)"
scalar scenarioPRJP1.node[97].wlan.mac 	rcvdPkFromHL:count 	19630
attr interpolationmode  none
attr source  packetReceivedFromUpper
attr title  "packets received from higher layer, count"
scalar scenarioPRJP1.node[97].wlan.mac 	rcvdPkFromHL:sum(packetBytes) 	6825831
attr interpolationmode  none
attr source  packetReceivedFromUpper
attr title  "packets received from higher layer, sum(packetBytes)"
scalar scenarioPRJP1.node[97].wlan.mac 	passedUpPk:count 	54126
attr interpolationmode  none
attr source  packetSentToUpper
attr title  "packets passed to higher layer, count"
scalar scenarioPRJP1.node[97].wlan.mac 	passedUpPk:sum(packetBytes) 	15991646
attr interpolationmode  none
attr source  packetSentToUpper
attr title  "packets passed to higher layer, sum(packetBytes)"
statistic scenarioPRJP1.node[97].wlan.radio 	radioChannel:histogram
field count 1
field mean 3
field stddev -nan
field sum 3
field sqrsum 9
field min 3
field max 3
attr interpolationmode  sample-hold
attr source  radioChannelChanged
attr title  "Radio channel, histogram"
bin	-INF	0
bin	2	0
bin	3	1
bin	4	0
scalar scenarioPRJP1.node[97].wlan.radio 	transmissionState:count 	148768
attr interpolationmode  sample-hold
attr source  transmissionStateChanged
attr title  "Radio transmission state, count"
scalar scenarioPRJP1.node[97].wlan.radio 	receptionState:count 	614312
attr interpolationmode  sample-hold
attr source  receptionStateChanged
attr title  "Radio reception state, count"
scalar scenarioPRJP1.node[97].wlan.radio 	radioMode:count 	74386
attr interpolationmode  sample-hold
attr source  radioModeChanged
attr title  "Radio mode, count"
statistic scenarioPRJP1.node[97].wlan.radio 	symbolErrorRate:histogram
field count 0
field mean -nan
field stddev -nan
field sum 0
field sqrsum 0
field min -nan
field max -nan
attr source  symbolErrorRate
attr title  "Symbol error rate, histogram"
bin	-INF	0
bin	-0.5	0
bin	-0.46666666666667	0
bin	-0.43333333333333	0
bin	-0.4	0
bin	-0.36666666666667	0
bin	-0.33333333333333	0
bin	-0.3	0
bin	-0.26666666666667	0
bin	-0.23333333333333	0
bin	-0.2	0
bin	-0.16666666666667	0
bin	-0.13333333333333	0
bin	-0.1	0
bin	-0.066666666666667	0
bin	-0.033333333333333	0
bin	0	0
bin	0.033333333333333	0
bin	0.066666666666667	0
bin	0.1	0
bin	0.13333333333333	0
bin	0.16666666666667	0
bin	0.2	0
bin	0.23333333333333	0
bin	0.26666666666667	0
bin	0.3	0
bin	0.33333333333333	0
bin	0.36666666666667	0
bin	0.4	0
bin	0.43333333333333	0
bin	0.46666666666667	0
bin	0.5	0
statistic scenarioPRJP1.node[97].wlan.radio 	bitErrorRate:histogram
field count 0
field mean -nan
field stddev -nan
field sum 0
field sqrsum 0
field min -nan
field max -nan
attr source  bitErrorRate
attr title  "Bit error rate, histogram"
bin	-INF	0
bin	-0.5	0
bin	-0.46666666666667	0
bin	-0.43333333333333	0
bin	-0.4	0
bin	-0.36666666666667	0
bin	-0.33333333333333	0
bin	-0.3	0
bin	-0.26666666666667	0
bin	-0.23333333333333	0
bin	-0.2	0
bin	-0.16666666666667	0
bin	-0.13333333333333	0
bin	-0.1	0
bin	-0.066666666666667	0
bin	-0.033333333333333	0
bin	0	0
bin	0.033333333333333	0
bin	0.066666666666667	0
bin	0.1	0
bin	0.13333333333333	0
bin	0.16666666666667	0
bin	0.2	0
bin	0.23333333333333	0
bin	0.26666666666667	0
bin	0.3	0
bin	0.33333333333333	0
bin	0.36666666666667	0
bin	0.4	0
bin	0.43333333333333	0
bin	0.46666666666667	0
bin	0.5	0
statistic scenarioPRJP1.node[97].wlan.radio 	packetErrorRate:histogram
field count 234232
field mean 0.45000118440413
field stddev 0.48761342479993
field sum 105404.67742535
field sqrsum 103124.59720452
field min 0
field max 1
attr source  packetErrorRate
attr title  "Packet error rate, histogram"
bin	-INF	0
bin	-0.5	0
bin	-0.43333333333333	0
bin	-0.36666666666667	0
bin	-0.3	0
bin	-0.23333333333333	0
bin	-0.16666666666667	0
bin	-0.1	0
bin	-0.033333333333333	119768
bin	0.033333333333333	3571
bin	0.1	1760
bin	0.16666666666667	1164
bin	0.23333333333333	990
bin	0.3	780
bin	0.36666666666667	754
bin	0.43333333333333	654
bin	0.5	666
bin	0.56666666666667	616
bin	0.63333333333333	590
bin	0.7	656
bin	0.76666666666667	751
bin	0.83333333333333	797
bin	0.9	1333
bin	0.96666666666667	99382
bin	1.0333333333333	0
bin	1.1	0
bin	1.1666666666667	0
bin	1.2333333333333	0
bin	1.3	0
bin	1.3666666666667	0
bin	1.4333333333333	0
bin	1.5	0
statistic scenarioPRJP1.node[97].wlan.radio 	minSNIR:histogram
field count 234232
field mean 489.89234911305
field stddev 9241.8983849174
field sum 114748464.71745
field sqrsum 20062513192518
field min 0.00011901667986013
field max 1410620.9198622
attr source  minSNIR
attr title  "Min SNIR, histogram"
bin	-INF	0
bin	-2749.660190175	0
bin	-2383.0297474621	0
bin	-2016.3993047493	0
bin	-1649.7688620364	0
bin	-1283.1384193235	0
bin	-916.50797661057	0
bin	-549.87753389768	0
bin	-183.24709118478	210726
bin	183.38335152811	12124
bin	550.013794241	3442
bin	916.6442369539	1674
bin	1283.2746796668	1042
bin	1649.9051223797	732
bin	2016.5355650926	526
bin	2383.1660078055	368
bin	2749.7964505184	339
bin	3116.4268932313	245
bin	3483.0573359442	201
bin	3849.6877786571	162
bin	4216.3182213699	133
bin	4582.9486640828	144
bin	4949.5791067957	112
bin	5316.2095495086	105
bin	5682.8399922215	95
bin	6049.4704349344	80
bin	6416.1008776473	81
bin	6782.7313203602	65
bin	7149.3617630731	57
bin	7515.992205786	63
bin	7882.6226484989	47
bin	8249.2530912118	1669
scalar scenarioPRJP1.node[97].lo0.lo 	droppedPkBitError:count 	0
attr interpolationmode  none
attr source  dropPkBitError
attr title  "packets dropped/bit error, count"
scalar scenarioPRJP1.node[97].lo0.lo 	droppedPkBitError:sum(packetBytes) 	0
attr interpolationmode  none
attr source  dropPkBitError
attr title  "packets dropped/bit error, sum(packetBytes)"
scalar scenarioPRJP1.node[97].lo0.lo 	rcvdPkFromHL:count 	0
attr interpolationmode  none
attr source  packetReceivedFromUpper
attr title  "packets received from higher layer, count"
scalar scenarioPRJP1.node[97].lo0.lo 	rcvdPkFromHL:sum(packetBytes) 	0
attr interpolationmode  none
attr source  packetReceivedFromUpper
attr title  "packets received from higher layer, sum(packetBytes)"
scalar scenarioPRJP1.node[97].lo0.lo 	passedUpPk:count 	0
attr interpolationmode  none
attr source  packetSentToUpper
attr title  "packets passed to higher layer, count"
scalar scenarioPRJP1.node[97].lo0.lo 	passedUpPk:sum(packetBytes) 	0
attr interpolationmode  none
attr source  packetSentToUpper
attr title  "packets passed to higher layer, sum(packetBytes)"
