version 2
run DYMOUM-LNS-100n-20-20150806-22:22:12-20513
attr configname DYMOUM-LNS-100n
attr datetime 20150806-22:22:12
attr experiment DYMOUM-LNS-100n
attr inifile omnetpp.ini
attr iterationvars ""
attr iterationvars2 $repetition=20
attr measurement ""
attr network Prj_Part1_propag.scenarioPRJP1
attr processid 20513
attr repetition 20
attr replication #20
attr resultdir results
attr runnumber 20
attr seedset 20

scalar scenarioPRJP1.node[50].app 	"Total sent" 	362
scalar scenarioPRJP1.node[50].app 	"Total received" 	29
scalar scenarioPRJP1.node[50].app 	"Total deleted" 	0
scalar scenarioPRJP1.node[50].app 	dropPk:count 	0
attr interpolationmode  none
attr source  dropPk
attr title  "packets dropped, count"
scalar scenarioPRJP1.node[50].app 	dropPk:sum(packetBytes) 	0
attr interpolationmode  none
attr source  dropPk
attr title  "packets dropped, sum(packetBytes)"
scalar scenarioPRJP1.node[50].app 	outOfOrderPk:count 	0
attr interpolationmode  none
attr source  outOfOrderPk
attr title  "packets received out of order, count"
scalar scenarioPRJP1.node[50].app 	outOfOrderPk:sum(packetBytes) 	0
attr interpolationmode  none
attr source  outOfOrderPk
attr title  "packets received out of order, sum(packetBytes)"
scalar scenarioPRJP1.node[50].app 	rcvdPk:count 	29
attr interpolationmode  none
attr source  rcvdPk
attr title  "packets received, count"
scalar scenarioPRJP1.node[50].app 	rcvdPk:sum(packetBytes) 	14848
attr interpolationmode  none
attr source  rcvdPk
attr title  "packets received, sum(packetBytes)"
statistic scenarioPRJP1.node[50].app 	endToEndDelay:histogram
field count 29
field mean 2.4612819301457
field stddev 4.2110674313429
field sum 71.377175974224
field sqrsum 672.20584296705
field min 0.001152071586
field max 16.696682226733
attr interpolationmode  none
attr source  messageAge(rcvdPk)
attr title  "delay, histogram"
attr unit  s
bin	-INF	0
bin	-8.3466130059875	0
bin	-7.233577662311	0
bin	-6.1205423186346	0
bin	-5.0075069749581	0
bin	-3.8944716312816	0
bin	-2.7814362876052	0
bin	-1.6684009439287	0
bin	-0.55536560025224	17
bin	0.55766974342423	4
bin	1.6707050871007	0
bin	2.7837404307772	0
bin	3.8967757744536	2
bin	5.0098111181301	0
bin	6.1228464618066	1
bin	7.235881805483	2
bin	8.3489171491595	0
bin	9.461952492836	2
bin	10.574987836512	0
bin	11.688023180189	0
bin	12.801058523865	0
bin	13.914093867542	0
bin	15.027129211218	0
bin	16.140164554895	1
bin	17.253199898571	0
bin	18.366235242248	0
bin	19.479270585924	0
bin	20.592305929601	0
bin	21.705341273277	0
bin	22.818376616954	0
bin	23.93141196063	0
bin	25.044447304307	0
scalar scenarioPRJP1.node[50].app 	sentPk:count 	362
attr interpolationmode  none
attr source  sentPk
attr title  "packets sent, count"
scalar scenarioPRJP1.node[50].app 	sentPk:sum(packetBytes) 	185344
attr interpolationmode  none
attr source  sentPk
attr title  "packets sent, sum(packetBytes)"
scalar scenarioPRJP1.node[50].udp 	droppedPkBadChecksum:count 	0
attr interpolationmode  none
attr title  "packets dropped (checksum error), count"
scalar scenarioPRJP1.node[50].udp 	droppedPkWrongPort:count 	0
attr interpolationmode  none
attr title  "packets dropped (wrong port), count"
scalar scenarioPRJP1.node[50].udp 	passedUpPk:count 	29
attr interpolationmode  none
attr title  "packets passed up, count"
scalar scenarioPRJP1.node[50].udp 	rcvdPk:count 	29
attr interpolationmode  none
attr source  rcvdPk
attr title  "packets received, count"
scalar scenarioPRJP1.node[50].udp 	rcvdPk:sum(packetBytes) 	15080
attr interpolationmode  none
attr source  rcvdPk
attr title  "packets received, sum(packetBytes)"
scalar scenarioPRJP1.node[50].udp 	sentPk:count 	362
attr interpolationmode  none
attr source  sentPk
attr title  "packets sent, count"
scalar scenarioPRJP1.node[50].udp 	sentPk:sum(packetBytes) 	188240
attr interpolationmode  none
attr source  sentPk
attr title  "packets sent, sum(packetBytes)"
scalar scenarioPRJP1.node[50].networkLayer.arp 	failedARPResolution:count 	38
attr title  "ARP failed resolutions, count"
scalar scenarioPRJP1.node[50].networkLayer.arp 	completedARPResolution:count 	756
attr title  "ARP completed resolutions, count"
scalar scenarioPRJP1.node[50].networkLayer.arp 	initiatedARPResolution:count 	63
attr title  "ARP initiated resolutions, count"
scalar scenarioPRJP1.node[50].networkLayer.arp 	sentReply:count 	7
attr title  "ARP replies sent, count"
scalar scenarioPRJP1.node[50].networkLayer.arp 	sentReq:count 	150
attr title  "ARP request sent, count"
scalar scenarioPRJP1.node[50].manetrouting 	"simulated time" 	158.4
scalar scenarioPRJP1.node[50].manetrouting 	"Dymo totalSend " 	469333
scalar scenarioPRJP1.node[50].manetrouting 	"Dymo Rreq send" 	247078
scalar scenarioPRJP1.node[50].manetrouting 	"Dymo Rreq rec" 	223232
scalar scenarioPRJP1.node[50].manetrouting 	"Dymo Rrep send" 	2381
scalar scenarioPRJP1.node[50].manetrouting 	"Dymo Rrep rec" 	1076
scalar scenarioPRJP1.node[50].manetrouting 	"Dymo Rerr send" 	1407
scalar scenarioPRJP1.node[50].manetrouting 	"Dymo Rerr rec" 	6280
scalar scenarioPRJP1.node[50].mobility 	startTime 	4.9
scalar scenarioPRJP1.node[50].mobility 	totalTime 	153.4
scalar scenarioPRJP1.node[50].mobility 	stopTime 	158.4
scalar scenarioPRJP1.node[50].mobility 	minSpeed 	2.4754229054913e-13
scalar scenarioPRJP1.node[50].mobility 	maxSpeed 	19.901959643234
scalar scenarioPRJP1.node[50].mobility 	totalDistance 	1483.9701806058
scalar scenarioPRJP1.node[50].mobility 	totalCO2Emission 	493.6483082516
scalar scenarioPRJP1.node[50].wlan.mgmt 	dataQueueLen:max 	2
attr interpolationmode  sample-hold
attr title  "data queue length, max"
scalar scenarioPRJP1.node[50].wlan.mgmt 	dataQueueLen:timeavg 	0
attr interpolationmode  sample-hold
attr title  "data queue length, timeavg"
scalar scenarioPRJP1.node[50].wlan.mgmt 	dropPkByQueue:count 	0
attr interpolationmode  none
attr source  dropPkByQueue
attr title  "packets dropped by queue, count"
scalar scenarioPRJP1.node[50].wlan.mgmt 	dropPkByQueue:sum(packetBytes) 	0
attr interpolationmode  none
attr source  dropPkByQueue
attr title  "packets dropped by queue, sum(packetBytes)"
scalar scenarioPRJP1.node[50].wlan.mac 	"number of received packets" 	388
scalar scenarioPRJP1.node[50].wlan.mac 	"number of collisions" 	15055
scalar scenarioPRJP1.node[50].wlan.mac 	"number of internal collisions" 	0
scalar scenarioPRJP1.node[50].wlan.mac 	"number of retry for AC 0" 	2080
scalar scenarioPRJP1.node[50].wlan.mac 	"number of retry for AC 1" 	0
scalar scenarioPRJP1.node[50].wlan.mac 	"number of retry for AC 2" 	0
scalar scenarioPRJP1.node[50].wlan.mac 	"number of retry for AC 3" 	0
scalar scenarioPRJP1.node[50].wlan.mac 	"sent and received bits" 	7050032
scalar scenarioPRJP1.node[50].wlan.mac 	"sent packet within AC 0" 	264
scalar scenarioPRJP1.node[50].wlan.mac 	"sent packet within AC 1" 	0
scalar scenarioPRJP1.node[50].wlan.mac 	"sent packet within AC 2" 	0
scalar scenarioPRJP1.node[50].wlan.mac 	"sent packet within AC 3" 	0
scalar scenarioPRJP1.node[50].wlan.mac 	"sent in TXOP " 	0
scalar scenarioPRJP1.node[50].wlan.mac 	"sentWithoutRetry AC 0" 	170
scalar scenarioPRJP1.node[50].wlan.mac 	"sentWithoutRetry AC 1" 	0
scalar scenarioPRJP1.node[50].wlan.mac 	"sentWithoutRetry AC 2" 	0
scalar scenarioPRJP1.node[50].wlan.mac 	"sentWithoutRetry AC 3" 	0
scalar scenarioPRJP1.node[50].wlan.mac 	"numGivenUp AC 0" 	299
scalar scenarioPRJP1.node[50].wlan.mac 	"numGivenUp AC 1" 	0
scalar scenarioPRJP1.node[50].wlan.mac 	"numGivenUp AC 2" 	0
scalar scenarioPRJP1.node[50].wlan.mac 	"numGivenUp AC 3" 	0
scalar scenarioPRJP1.node[50].wlan.mac 	"numDropped AC 0" 	0
scalar scenarioPRJP1.node[50].wlan.mac 	"numDropped AC 1" 	0
scalar scenarioPRJP1.node[50].wlan.mac 	"numDropped AC 2" 	0
scalar scenarioPRJP1.node[50].wlan.mac 	"numDropped AC 3" 	0
scalar scenarioPRJP1.node[50].wlan.mac 	rcvdPkFromLL:count 	34781
attr interpolationmode  none
attr source  packetReceivedFromLower
attr title  "packets received from lower layer, count"
scalar scenarioPRJP1.node[50].wlan.mac 	rcvdPkFromLL:sum(packetBytes) 	13630396
attr interpolationmode  none
attr source  packetReceivedFromLower
attr title  "packets received from lower layer, sum(packetBytes)"
scalar scenarioPRJP1.node[50].wlan.mac 	sentDownPk:count 	5311
attr interpolationmode  none
attr source  packetSentToLower
attr title  "packets sent to lower layer, count"
scalar scenarioPRJP1.node[50].wlan.mac 	sentDownPk:sum(packetBytes) 	2186336
attr interpolationmode  none
attr source  packetSentToLower
attr title  "packets sent to lower layer, sum(packetBytes)"
scalar scenarioPRJP1.node[50].wlan.mac 	rcvdPkFromHL:count 	2843
attr interpolationmode  none
attr source  packetReceivedFromUpper
attr title  "packets received from higher layer, count"
scalar scenarioPRJP1.node[50].wlan.mac 	rcvdPkFromHL:sum(packetBytes) 	1043739
attr interpolationmode  none
attr source  packetReceivedFromUpper
attr title  "packets received from higher layer, sum(packetBytes)"
scalar scenarioPRJP1.node[50].wlan.mac 	passedUpPk:count 	8720
attr interpolationmode  none
attr source  packetSentToUpper
attr title  "packets passed to higher layer, count"
scalar scenarioPRJP1.node[50].wlan.mac 	passedUpPk:sum(packetBytes) 	2681535
attr interpolationmode  none
attr source  packetSentToUpper
attr title  "packets passed to higher layer, sum(packetBytes)"
statistic scenarioPRJP1.node[50].wlan.radio 	radioChannel:histogram
field count 1
field mean 3
field stddev -nan
field sum 3
field sqrsum 9
field min 3
field max 3
attr interpolationmode  sample-hold
attr source  radioChannelChanged
attr title  "Radio channel, histogram"
bin	-INF	0
bin	2	0
bin	3	1
bin	4	0
scalar scenarioPRJP1.node[50].wlan.radio 	transmissionState:count 	21244
attr interpolationmode  sample-hold
attr source  transmissionStateChanged
attr title  "Radio transmission state, count"
scalar scenarioPRJP1.node[50].wlan.radio 	receptionState:count 	87000
attr interpolationmode  sample-hold
attr source  receptionStateChanged
attr title  "Radio reception state, count"
scalar scenarioPRJP1.node[50].wlan.radio 	radioMode:count 	10624
attr interpolationmode  sample-hold
attr source  radioModeChanged
attr title  "Radio mode, count"
statistic scenarioPRJP1.node[50].wlan.radio 	symbolErrorRate:histogram
field count 0
field mean -nan
field stddev -nan
field sum 0
field sqrsum 0
field min -nan
field max -nan
attr source  symbolErrorRate
attr title  "Symbol error rate, histogram"
bin	-INF	0
bin	-0.5	0
bin	-0.46666666666667	0
bin	-0.43333333333333	0
bin	-0.4	0
bin	-0.36666666666667	0
bin	-0.33333333333333	0
bin	-0.3	0
bin	-0.26666666666667	0
bin	-0.23333333333333	0
bin	-0.2	0
bin	-0.16666666666667	0
bin	-0.13333333333333	0
bin	-0.1	0
bin	-0.066666666666667	0
bin	-0.033333333333333	0
bin	0	0
bin	0.033333333333333	0
bin	0.066666666666667	0
bin	0.1	0
bin	0.13333333333333	0
bin	0.16666666666667	0
bin	0.2	0
bin	0.23333333333333	0
bin	0.26666666666667	0
bin	0.3	0
bin	0.33333333333333	0
bin	0.36666666666667	0
bin	0.4	0
bin	0.43333333333333	0
bin	0.46666666666667	0
bin	0.5	0
statistic scenarioPRJP1.node[50].wlan.radio 	bitErrorRate:histogram
field count 0
field mean -nan
field stddev -nan
field sum 0
field sqrsum 0
field min -nan
field max -nan
attr source  bitErrorRate
attr title  "Bit error rate, histogram"
bin	-INF	0
bin	-0.5	0
bin	-0.46666666666667	0
bin	-0.43333333333333	0
bin	-0.4	0
bin	-0.36666666666667	0
bin	-0.33333333333333	0
bin	-0.3	0
bin	-0.26666666666667	0
bin	-0.23333333333333	0
bin	-0.2	0
bin	-0.16666666666667	0
bin	-0.13333333333333	0
bin	-0.1	0
bin	-0.066666666666667	0
bin	-0.033333333333333	0
bin	0	0
bin	0.033333333333333	0
bin	0.066666666666667	0
bin	0.1	0
bin	0.13333333333333	0
bin	0.16666666666667	0
bin	0.2	0
bin	0.23333333333333	0
bin	0.26666666666667	0
bin	0.3	0
bin	0.33333333333333	0
bin	0.36666666666667	0
bin	0.4	0
bin	0.43333333333333	0
bin	0.46666666666667	0
bin	0.5	0
statistic scenarioPRJP1.node[50].wlan.radio 	packetErrorRate:histogram
field count 34781
field mean 0.39975054203859
field stddev 0.47884694873934
field sum 13903.723602644
field sqrsum 13532.880289536
field min 0
field max 1
attr source  packetErrorRate
attr title  "Packet error rate, histogram"
bin	-INF	0
bin	-0.5	0
bin	-0.46666666666667	0
bin	-0.43333333333333	0
bin	-0.4	0
bin	-0.36666666666667	0
bin	-0.33333333333333	0
bin	-0.3	0
bin	-0.26666666666667	0
bin	-0.23333333333333	0
bin	-0.2	0
bin	-0.16666666666667	0
bin	-0.13333333333333	0
bin	-0.1	0
bin	-0.066666666666667	0
bin	-0.033333333333333	0
bin	0	19398
bin	0.033333333333333	364
bin	0.066666666666667	219
bin	0.1	155
bin	0.13333333333333	134
bin	0.16666666666667	118
bin	0.2	90
bin	0.23333333333333	90
bin	0.26666666666667	79
bin	0.3	54
bin	0.33333333333333	55
bin	0.36666666666667	57
bin	0.4	59
bin	0.43333333333333	48
bin	0.46666666666667	50
bin	0.5	13811
statistic scenarioPRJP1.node[50].wlan.radio 	minSNIR:histogram
field count 34781
field mean 325.06394891694
field stddev 9447.2072022237
field sum 11306049.20728
field sqrsum 3107780587000.3
field min 0.00016871203665687
field max 1327491.008427
attr source  minSNIR
attr title  "Min SNIR, histogram"
bin	-INF	0
bin	-11352.415229378	0
bin	-9834.7579889452	0
bin	-8317.100748513	0
bin	-6799.4435080807	0
bin	-5281.7862676484	0
bin	-3764.1290272161	0
bin	-2246.4717867838	0
bin	-728.81454635151	33805
bin	788.84269408077	525
bin	2306.4999345131	158
bin	3824.1571749454	73
bin	5341.8144153776	46
bin	6859.4716558099	24
bin	8377.1288962422	22
bin	9894.7861366745	20
bin	11412.443377107	14
bin	12930.100617539	6
bin	14447.757857971	5
bin	15965.415098404	7
bin	17483.072338836	6
bin	19000.729579268	5
bin	20518.386819701	0
bin	22036.044060133	3
bin	23553.701300565	2
bin	25071.358540997	2
bin	26589.01578143	4
bin	28106.673021862	3
bin	29624.330262294	2
bin	31141.987502727	4
bin	32659.644743159	2
bin	34177.301983591	43
scalar scenarioPRJP1.node[50].lo0.lo 	droppedPkBitError:count 	0
attr interpolationmode  none
attr source  dropPkBitError
attr title  "packets dropped/bit error, count"
scalar scenarioPRJP1.node[50].lo0.lo 	droppedPkBitError:sum(packetBytes) 	0
attr interpolationmode  none
attr source  dropPkBitError
attr title  "packets dropped/bit error, sum(packetBytes)"
scalar scenarioPRJP1.node[50].lo0.lo 	rcvdPkFromHL:count 	0
attr interpolationmode  none
attr source  packetReceivedFromUpper
attr title  "packets received from higher layer, count"
scalar scenarioPRJP1.node[50].lo0.lo 	rcvdPkFromHL:sum(packetBytes) 	0
attr interpolationmode  none
attr source  packetReceivedFromUpper
attr title  "packets received from higher layer, sum(packetBytes)"
scalar scenarioPRJP1.node[50].lo0.lo 	passedUpPk:count 	0
attr interpolationmode  none
attr source  packetSentToUpper
attr title  "packets passed to higher layer, count"
scalar scenarioPRJP1.node[50].lo0.lo 	passedUpPk:sum(packetBytes) 	0
attr interpolationmode  none
attr source  packetSentToUpper
attr title  "packets passed to higher layer, sum(packetBytes)"
scalar scenarioPRJP1.node[91].app 	"Total sent" 	367
scalar scenarioPRJP1.node[91].app 	"Total received" 	16
scalar scenarioPRJP1.node[91].app 	"Total deleted" 	0
scalar scenarioPRJP1.node[91].app 	dropPk:count 	0
attr interpolationmode  none
attr source  dropPk
attr title  "packets dropped, count"
scalar scenarioPRJP1.node[91].app 	dropPk:sum(packetBytes) 	0
attr interpolationmode  none
attr source  dropPk
attr title  "packets dropped, sum(packetBytes)"
scalar scenarioPRJP1.node[91].app 	outOfOrderPk:count 	0
attr interpolationmode  none
attr source  outOfOrderPk
attr title  "packets received out of order, count"
scalar scenarioPRJP1.node[91].app 	outOfOrderPk:sum(packetBytes) 	0
attr interpolationmode  none
attr source  outOfOrderPk
attr title  "packets received out of order, sum(packetBytes)"
scalar scenarioPRJP1.node[91].app 	rcvdPk:count 	16
attr interpolationmode  none
attr source  rcvdPk
attr title  "packets received, count"
scalar scenarioPRJP1.node[91].app 	rcvdPk:sum(packetBytes) 	8192
attr interpolationmode  none
attr source  rcvdPk
attr title  "packets received, sum(packetBytes)"
statistic scenarioPRJP1.node[91].app 	endToEndDelay:histogram
field count 16
field mean 2.3781599559369
field stddev 3.8896815436509
field sum 38.05055929499
field sqrsum 317.43465408162
field min 0.000958146005
field max 10.94839921712
attr interpolationmode  none
attr source  messageAge(rcvdPk)
attr title  "delay, histogram"
attr unit  s
bin	-INF	0
bin	-5.4727623895525	0
bin	-4.7429329848115	0
bin	-4.0131035800705	0
bin	-3.2832741753295	0
bin	-2.5534447705885	0
bin	-1.8236153658475	0
bin	-1.0937859611065	0
bin	-0.3639565563655	10
bin	0.3658728483755	1
bin	1.0957022531165	0
bin	1.8255316578575	0
bin	2.5553610625985	1
bin	3.2851904673395	1
bin	4.0150198720805	0
bin	4.7448492768215	0
bin	5.4746786815625	0
bin	6.2045080863035	0
bin	6.9343374910445	0
bin	7.6641668957855	0
bin	8.3939963005265	1
bin	9.1238257052675	1
bin	9.8536551100085	0
bin	10.58348451475	1
bin	11.313313919491	0
bin	12.043143324232	0
bin	12.772972728973	0
bin	13.502802133714	0
bin	14.232631538454	0
bin	14.962460943195	0
bin	15.692290347936	0
bin	16.422119752677	0
scalar scenarioPRJP1.node[91].app 	sentPk:count 	367
attr interpolationmode  none
attr source  sentPk
attr title  "packets sent, count"
scalar scenarioPRJP1.node[91].app 	sentPk:sum(packetBytes) 	187904
attr interpolationmode  none
attr source  sentPk
attr title  "packets sent, sum(packetBytes)"
scalar scenarioPRJP1.node[91].udp 	droppedPkBadChecksum:count 	0
attr interpolationmode  none
attr title  "packets dropped (checksum error), count"
scalar scenarioPRJP1.node[91].udp 	droppedPkWrongPort:count 	0
attr interpolationmode  none
attr title  "packets dropped (wrong port), count"
scalar scenarioPRJP1.node[91].udp 	passedUpPk:count 	16
attr interpolationmode  none
attr title  "packets passed up, count"
scalar scenarioPRJP1.node[91].udp 	rcvdPk:count 	16
attr interpolationmode  none
attr source  rcvdPk
attr title  "packets received, count"
scalar scenarioPRJP1.node[91].udp 	rcvdPk:sum(packetBytes) 	8320
attr interpolationmode  none
attr source  rcvdPk
attr title  "packets received, sum(packetBytes)"
scalar scenarioPRJP1.node[91].udp 	sentPk:count 	367
attr interpolationmode  none
attr source  sentPk
attr title  "packets sent, count"
scalar scenarioPRJP1.node[91].udp 	sentPk:sum(packetBytes) 	190840
attr interpolationmode  none
attr source  sentPk
attr title  "packets sent, sum(packetBytes)"
scalar scenarioPRJP1.node[91].networkLayer.arp 	failedARPResolution:count 	76
attr title  "ARP failed resolutions, count"
scalar scenarioPRJP1.node[91].networkLayer.arp 	completedARPResolution:count 	671
attr title  "ARP completed resolutions, count"
scalar scenarioPRJP1.node[91].networkLayer.arp 	initiatedARPResolution:count 	103
attr title  "ARP initiated resolutions, count"
scalar scenarioPRJP1.node[91].networkLayer.arp 	sentReply:count 	7
attr title  "ARP replies sent, count"
scalar scenarioPRJP1.node[91].networkLayer.arp 	sentReq:count 	273
attr title  "ARP request sent, count"
scalar scenarioPRJP1.node[91].mobility 	startTime 	9.7
scalar scenarioPRJP1.node[91].mobility 	totalTime 	149.6
scalar scenarioPRJP1.node[91].mobility 	stopTime 	159.4
scalar scenarioPRJP1.node[91].mobility 	minSpeed 	2.4754536885319e-13
scalar scenarioPRJP1.node[91].mobility 	maxSpeed 	18.780404141947
scalar scenarioPRJP1.node[91].mobility 	totalDistance 	1483.1512752103
scalar scenarioPRJP1.node[91].mobility 	totalCO2Emission 	460.93779836282
scalar scenarioPRJP1.node[91].wlan.mgmt 	dataQueueLen:max 	0
attr interpolationmode  sample-hold
attr title  "data queue length, max"
scalar scenarioPRJP1.node[91].wlan.mgmt 	dataQueueLen:timeavg 	0
attr interpolationmode  sample-hold
attr title  "data queue length, timeavg"
scalar scenarioPRJP1.node[91].wlan.mgmt 	dropPkByQueue:count 	0
attr interpolationmode  none
attr source  dropPkByQueue
attr title  "packets dropped by queue, count"
scalar scenarioPRJP1.node[91].wlan.mgmt 	dropPkByQueue:sum(packetBytes) 	0
attr interpolationmode  none
attr source  dropPkByQueue
attr title  "packets dropped by queue, sum(packetBytes)"
scalar scenarioPRJP1.node[91].wlan.mac 	"number of received packets" 	448
scalar scenarioPRJP1.node[91].wlan.mac 	"number of collisions" 	14892
scalar scenarioPRJP1.node[91].wlan.mac 	"number of internal collisions" 	0
scalar scenarioPRJP1.node[91].wlan.mac 	"number of retry for AC 0" 	1700
scalar scenarioPRJP1.node[91].wlan.mac 	"number of retry for AC 1" 	1
scalar scenarioPRJP1.node[91].wlan.mac 	"number of retry for AC 2" 	0
scalar scenarioPRJP1.node[91].wlan.mac 	"number of retry for AC 3" 	0
scalar scenarioPRJP1.node[91].wlan.mac 	"sent and received bits" 	6755376
scalar scenarioPRJP1.node[91].wlan.mac 	"sent packet within AC 0" 	239
scalar scenarioPRJP1.node[91].wlan.mac 	"sent packet within AC 1" 	1
scalar scenarioPRJP1.node[91].wlan.mac 	"sent packet within AC 2" 	0
scalar scenarioPRJP1.node[91].wlan.mac 	"sent packet within AC 3" 	0
scalar scenarioPRJP1.node[91].wlan.mac 	"sent in TXOP " 	0
scalar scenarioPRJP1.node[91].wlan.mac 	"sentWithoutRetry AC 0" 	148
scalar scenarioPRJP1.node[91].wlan.mac 	"sentWithoutRetry AC 1" 	0
scalar scenarioPRJP1.node[91].wlan.mac 	"sentWithoutRetry AC 2" 	0
scalar scenarioPRJP1.node[91].wlan.mac 	"sentWithoutRetry AC 3" 	0
scalar scenarioPRJP1.node[91].wlan.mac 	"numGivenUp AC 0" 	248
scalar scenarioPRJP1.node[91].wlan.mac 	"numGivenUp AC 1" 	0
scalar scenarioPRJP1.node[91].wlan.mac 	"numGivenUp AC 2" 	0
scalar scenarioPRJP1.node[91].wlan.mac 	"numGivenUp AC 3" 	0
scalar scenarioPRJP1.node[91].wlan.mac 	"numDropped AC 0" 	0
scalar scenarioPRJP1.node[91].wlan.mac 	"numDropped AC 1" 	0
scalar scenarioPRJP1.node[91].wlan.mac 	"numDropped AC 2" 	0
scalar scenarioPRJP1.node[91].wlan.mac 	"numDropped AC 3" 	0
scalar scenarioPRJP1.node[91].wlan.mac 	rcvdPkFromLL:count 	29124
attr interpolationmode  none
attr source  packetReceivedFromLower
attr title  "packets received from lower layer, count"
scalar scenarioPRJP1.node[91].wlan.mac 	rcvdPkFromLL:sum(packetBytes) 	11413517
attr interpolationmode  none
attr source  packetReceivedFromLower
attr title  "packets received from lower layer, sum(packetBytes)"
scalar scenarioPRJP1.node[91].wlan.mac 	sentDownPk:count 	4948
attr interpolationmode  none
attr source  packetSentToLower
attr title  "packets sent to lower layer, count"
scalar scenarioPRJP1.node[91].wlan.mac 	sentDownPk:sum(packetBytes) 	1905472
attr interpolationmode  none
attr source  packetSentToLower
attr title  "packets sent to lower layer, sum(packetBytes)"
scalar scenarioPRJP1.node[91].wlan.mac 	rcvdPkFromHL:count 	2799
attr interpolationmode  none
attr source  packetReceivedFromUpper
attr title  "packets received from higher layer, count"
scalar scenarioPRJP1.node[91].wlan.mac 	rcvdPkFromHL:sum(packetBytes) 	978426
attr interpolationmode  none
attr source  packetReceivedFromUpper
attr title  "packets received from higher layer, sum(packetBytes)"
scalar scenarioPRJP1.node[91].wlan.mac 	passedUpPk:count 	6884
attr interpolationmode  none
attr source  packetSentToUpper
attr title  "packets passed to higher layer, count"
scalar scenarioPRJP1.node[91].wlan.mac 	passedUpPk:sum(packetBytes) 	2188056
attr interpolationmode  none
attr source  packetSentToUpper
attr title  "packets passed to higher layer, sum(packetBytes)"
statistic scenarioPRJP1.node[91].wlan.radio 	radioChannel:histogram
field count 1
field mean 3
field stddev -nan
field sum 3
field sqrsum 9
field min 3
field max 3
attr interpolationmode  sample-hold
attr source  radioChannelChanged
attr title  "Radio channel, histogram"
bin	-INF	0
bin	2	0
bin	3	1
bin	4	0
scalar scenarioPRJP1.node[91].wlan.radio 	transmissionState:count 	19792
attr interpolationmode  sample-hold
attr source  transmissionStateChanged
attr title  "Radio transmission state, count"
scalar scenarioPRJP1.node[91].wlan.radio 	receptionState:count 	76649
attr interpolationmode  sample-hold
attr source  receptionStateChanged
attr title  "Radio reception state, count"
scalar scenarioPRJP1.node[91].wlan.radio 	radioMode:count 	9898
attr interpolationmode  sample-hold
attr source  radioModeChanged
attr title  "Radio mode, count"
statistic scenarioPRJP1.node[91].wlan.radio 	symbolErrorRate:histogram
field count 0
field mean -nan
field stddev -nan
field sum 0
field sqrsum 0
field min -nan
field max -nan
attr source  symbolErrorRate
attr title  "Symbol error rate, histogram"
bin	-INF	0
bin	-0.5	0
bin	-0.46666666666667	0
bin	-0.43333333333333	0
bin	-0.4	0
bin	-0.36666666666667	0
bin	-0.33333333333333	0
bin	-0.3	0
bin	-0.26666666666667	0
bin	-0.23333333333333	0
bin	-0.2	0
bin	-0.16666666666667	0
bin	-0.13333333333333	0
bin	-0.1	0
bin	-0.066666666666667	0
bin	-0.033333333333333	0
bin	0	0
bin	0.033333333333333	0
bin	0.066666666666667	0
bin	0.1	0
bin	0.13333333333333	0
bin	0.16666666666667	0
bin	0.2	0
bin	0.23333333333333	0
bin	0.26666666666667	0
bin	0.3	0
bin	0.33333333333333	0
bin	0.36666666666667	0
bin	0.4	0
bin	0.43333333333333	0
bin	0.46666666666667	0
bin	0.5	0
statistic scenarioPRJP1.node[91].wlan.radio 	bitErrorRate:histogram
field count 0
field mean -nan
field stddev -nan
field sum 0
field sqrsum 0
field min -nan
field max -nan
attr source  bitErrorRate
attr title  "Bit error rate, histogram"
bin	-INF	0
bin	-0.5	0
bin	-0.46666666666667	0
bin	-0.43333333333333	0
bin	-0.4	0
bin	-0.36666666666667	0
bin	-0.33333333333333	0
bin	-0.3	0
bin	-0.26666666666667	0
bin	-0.23333333333333	0
bin	-0.2	0
bin	-0.16666666666667	0
bin	-0.13333333333333	0
bin	-0.1	0
bin	-0.066666666666667	0
bin	-0.033333333333333	0
bin	0	0
bin	0.033333333333333	0
bin	0.066666666666667	0
bin	0.1	0
bin	0.13333333333333	0
bin	0.16666666666667	0
bin	0.2	0
bin	0.23333333333333	0
bin	0.26666666666667	0
bin	0.3	0
bin	0.33333333333333	0
bin	0.36666666666667	0
bin	0.4	0
bin	0.43333333333333	0
bin	0.46666666666667	0
bin	0.5	0
statistic scenarioPRJP1.node[91].wlan.radio 	packetErrorRate:histogram
field count 29124
field mean 0.47501400582707
field stddev 0.48859386812786
field sum 13834.307905708
field sqrsum 13523.848135388
field min 0
field max 1
attr source  packetErrorRate
attr title  "Packet error rate, histogram"
bin	-INF	0
bin	-0.5	0
bin	-0.43333333333333	0
bin	-0.36666666666667	0
bin	-0.3	0
bin	-0.23333333333333	0
bin	-0.16666666666667	0
bin	-0.1	0
bin	-0.033333333333333	14041
bin	0.033333333333333	465
bin	0.1	272
bin	0.16666666666667	179
bin	0.23333333333333	130
bin	0.3	108
bin	0.36666666666667	108
bin	0.43333333333333	88
bin	0.5	79
bin	0.56666666666667	94
bin	0.63333333333333	55
bin	0.7	92
bin	0.76666666666667	89
bin	0.83333333333333	118
bin	0.9	178
bin	0.96666666666667	13028
bin	1.0333333333333	0
bin	1.1	0
bin	1.1666666666667	0
bin	1.2333333333333	0
bin	1.3	0
bin	1.3666666666667	0
bin	1.4333333333333	0
bin	1.5	0
statistic scenarioPRJP1.node[91].wlan.radio 	minSNIR:histogram
field count 29124
field mean 595.72347607105
field stddev 14844.588301392
field sum 17349850.517093
field sqrsum 6427932468181.9
field min 0.0001659746028076
field max 1299517.5489458
attr source  minSNIR
attr title  "Min SNIR, histogram"
bin	-INF	0
bin	-7979.8100321642	0
bin	-6915.8295012094	0
bin	-5851.8489702546	0
bin	-4787.8684392998	0
bin	-3723.887908345	0
bin	-2659.9073773902	0
bin	-1595.9268464354	0
bin	-531.94631548055	27257
bin	532.03421547425	1007
bin	1596.0147464291	340
bin	2659.9952773839	166
bin	3723.9758083387	95
bin	4787.9563392935	52
bin	5851.9368702483	34
bin	6915.9174012031	23
bin	7979.8979321579	15
bin	9043.8784631127	14
bin	10107.858994067	9
bin	11171.839525022	14
bin	12235.820055977	6
bin	13299.800586932	9
bin	14363.781117887	3
bin	15427.761648841	8
bin	16491.742179796	3
bin	17555.722710751	5
bin	18619.703241706	2
bin	19683.683772661	2
bin	20747.664303616	1
bin	21811.64483457	0
bin	22875.625365525	0
bin	23939.60589648	59
scalar scenarioPRJP1.node[91].lo0.lo 	droppedPkBitError:count 	0
attr interpolationmode  none
attr source  dropPkBitError
attr title  "packets dropped/bit error, count"
scalar scenarioPRJP1.node[91].lo0.lo 	droppedPkBitError:sum(packetBytes) 	0
attr interpolationmode  none
attr source  dropPkBitError
attr title  "packets dropped/bit error, sum(packetBytes)"
scalar scenarioPRJP1.node[91].lo0.lo 	rcvdPkFromHL:count 	0
attr interpolationmode  none
attr source  packetReceivedFromUpper
attr title  "packets received from higher layer, count"
scalar scenarioPRJP1.node[91].lo0.lo 	rcvdPkFromHL:sum(packetBytes) 	0
attr interpolationmode  none
attr source  packetReceivedFromUpper
attr title  "packets received from higher layer, sum(packetBytes)"
scalar scenarioPRJP1.node[91].lo0.lo 	passedUpPk:count 	0
attr interpolationmode  none
attr source  packetSentToUpper
attr title  "packets passed to higher layer, count"
scalar scenarioPRJP1.node[91].lo0.lo 	passedUpPk:sum(packetBytes) 	0
attr interpolationmode  none
attr source  packetSentToUpper
attr title  "packets passed to higher layer, sum(packetBytes)"
scalar scenarioPRJP1.node[56].app 	"Total sent" 	373
scalar scenarioPRJP1.node[56].app 	"Total received" 	26
scalar scenarioPRJP1.node[56].app 	"Total deleted" 	0
scalar scenarioPRJP1.node[56].app 	dropPk:count 	0
attr interpolationmode  none
attr source  dropPk
attr title  "packets dropped, count"
scalar scenarioPRJP1.node[56].app 	dropPk:sum(packetBytes) 	0
attr interpolationmode  none
attr source  dropPk
attr title  "packets dropped, sum(packetBytes)"
scalar scenarioPRJP1.node[56].app 	outOfOrderPk:count 	0
attr interpolationmode  none
attr source  outOfOrderPk
attr title  "packets received out of order, count"
scalar scenarioPRJP1.node[56].app 	outOfOrderPk:sum(packetBytes) 	0
attr interpolationmode  none
attr source  outOfOrderPk
attr title  "packets received out of order, sum(packetBytes)"
scalar scenarioPRJP1.node[56].app 	rcvdPk:count 	26
attr interpolationmode  none
attr source  rcvdPk
attr title  "packets received, count"
scalar scenarioPRJP1.node[56].app 	rcvdPk:sum(packetBytes) 	13312
attr interpolationmode  none
attr source  rcvdPk
attr title  "packets received, sum(packetBytes)"
statistic scenarioPRJP1.node[56].app 	endToEndDelay:histogram
field count 26
field mean 0.32947136554812
field stddev 0.79506497398699
field sum 8.566255504251
field sqrsum 18.625543720143
field min 0.001036178244
field max 2.74152705532
attr interpolationmode  none
attr source  messageAge(rcvdPk)
attr title  "delay, histogram"
attr unit  s
bin	-INF	0
bin	-1.369209260294	0
bin	-1.1865098684889	0
bin	-1.0038104766839	0
bin	-0.8211110848788	0
bin	-0.63841169307373	0
bin	-0.45571230126867	0
bin	-0.2730129094636	0
bin	-0.090313517658533	19
bin	0.092385874146533	3
bin	0.2750852659516	1
bin	0.45778465775667	0
bin	0.64048404956173	0
bin	0.8231834413668	0
bin	1.0058828331719	0
bin	1.1885822249769	0
bin	1.371281616782	0
bin	1.5539810085871	0
bin	1.7366804003921	0
bin	1.9193797921972	1
bin	2.1020791840023	0
bin	2.2847785758073	0
bin	2.4674779676124	1
bin	2.6501773594175	1
bin	2.8328767512225	0
bin	3.0155761430276	0
bin	3.1982755348327	0
bin	3.3809749266377	0
bin	3.5636743184428	0
bin	3.7463737102479	0
bin	3.9290731020529	0
bin	4.111772493858	0
scalar scenarioPRJP1.node[56].app 	sentPk:count 	373
attr interpolationmode  none
attr source  sentPk
attr title  "packets sent, count"
scalar scenarioPRJP1.node[56].app 	sentPk:sum(packetBytes) 	190976
attr interpolationmode  none
attr source  sentPk
attr title  "packets sent, sum(packetBytes)"
scalar scenarioPRJP1.node[56].udp 	droppedPkBadChecksum:count 	0
attr interpolationmode  none
attr title  "packets dropped (checksum error), count"
scalar scenarioPRJP1.node[56].udp 	droppedPkWrongPort:count 	0
attr interpolationmode  none
attr title  "packets dropped (wrong port), count"
scalar scenarioPRJP1.node[56].udp 	passedUpPk:count 	26
attr interpolationmode  none
attr title  "packets passed up, count"
scalar scenarioPRJP1.node[56].udp 	rcvdPk:count 	26
attr interpolationmode  none
attr source  rcvdPk
attr title  "packets received, count"
scalar scenarioPRJP1.node[56].udp 	rcvdPk:sum(packetBytes) 	13520
attr interpolationmode  none
attr source  rcvdPk
attr title  "packets received, sum(packetBytes)"
scalar scenarioPRJP1.node[56].udp 	sentPk:count 	373
attr interpolationmode  none
attr source  sentPk
attr title  "packets sent, count"
scalar scenarioPRJP1.node[56].udp 	sentPk:sum(packetBytes) 	193960
attr interpolationmode  none
attr source  sentPk
attr title  "packets sent, sum(packetBytes)"
scalar scenarioPRJP1.node[56].networkLayer.arp 	failedARPResolution:count 	42
attr title  "ARP failed resolutions, count"
scalar scenarioPRJP1.node[56].networkLayer.arp 	completedARPResolution:count 	1039
attr title  "ARP completed resolutions, count"
scalar scenarioPRJP1.node[56].networkLayer.arp 	initiatedARPResolution:count 	68
attr title  "ARP initiated resolutions, count"
scalar scenarioPRJP1.node[56].networkLayer.arp 	sentReply:count 	14
attr title  "ARP replies sent, count"
scalar scenarioPRJP1.node[56].networkLayer.arp 	sentReq:count 	169
attr title  "ARP request sent, count"
scalar scenarioPRJP1.node[56].mobility 	startTime 	4.9
scalar scenarioPRJP1.node[56].mobility 	totalTime 	155.5
scalar scenarioPRJP1.node[56].mobility 	stopTime 	160.5
scalar scenarioPRJP1.node[56].mobility 	minSpeed 	2.4758422458723e-13
scalar scenarioPRJP1.node[56].mobility 	maxSpeed 	20.019532357198
scalar scenarioPRJP1.node[56].mobility 	totalDistance 	1449.1746642908
scalar scenarioPRJP1.node[56].mobility 	totalCO2Emission 	436.47931232683
scalar scenarioPRJP1.node[56].wlan.mgmt 	dataQueueLen:max 	4
attr interpolationmode  sample-hold
attr title  "data queue length, max"
scalar scenarioPRJP1.node[56].wlan.mgmt 	dataQueueLen:timeavg 	0
attr interpolationmode  sample-hold
attr title  "data queue length, timeavg"
scalar scenarioPRJP1.node[56].wlan.mgmt 	dropPkByQueue:count 	0
attr interpolationmode  none
attr source  dropPkByQueue
attr title  "packets dropped by queue, count"
scalar scenarioPRJP1.node[56].wlan.mgmt 	dropPkByQueue:sum(packetBytes) 	0
attr interpolationmode  none
attr source  dropPkByQueue
attr title  "packets dropped by queue, sum(packetBytes)"
scalar scenarioPRJP1.node[56].wlan.mac 	"number of received packets" 	453
scalar scenarioPRJP1.node[56].wlan.mac 	"number of collisions" 	15866
scalar scenarioPRJP1.node[56].wlan.mac 	"number of internal collisions" 	0
scalar scenarioPRJP1.node[56].wlan.mac 	"number of retry for AC 0" 	2161
scalar scenarioPRJP1.node[56].wlan.mac 	"number of retry for AC 1" 	0
scalar scenarioPRJP1.node[56].wlan.mac 	"number of retry for AC 2" 	0
scalar scenarioPRJP1.node[56].wlan.mac 	"number of retry for AC 3" 	0
scalar scenarioPRJP1.node[56].wlan.mac 	"sent and received bits" 	6853016
scalar scenarioPRJP1.node[56].wlan.mac 	"sent packet within AC 0" 	293
scalar scenarioPRJP1.node[56].wlan.mac 	"sent packet within AC 1" 	0
scalar scenarioPRJP1.node[56].wlan.mac 	"sent packet within AC 2" 	0
scalar scenarioPRJP1.node[56].wlan.mac 	"sent packet within AC 3" 	0
scalar scenarioPRJP1.node[56].wlan.mac 	"sent in TXOP " 	0
scalar scenarioPRJP1.node[56].wlan.mac 	"sentWithoutRetry AC 0" 	225
scalar scenarioPRJP1.node[56].wlan.mac 	"sentWithoutRetry AC 1" 	0
scalar scenarioPRJP1.node[56].wlan.mac 	"sentWithoutRetry AC 2" 	0
scalar scenarioPRJP1.node[56].wlan.mac 	"sentWithoutRetry AC 3" 	0
scalar scenarioPRJP1.node[56].wlan.mac 	"numGivenUp AC 0" 	337
scalar scenarioPRJP1.node[56].wlan.mac 	"numGivenUp AC 1" 	0
scalar scenarioPRJP1.node[56].wlan.mac 	"numGivenUp AC 2" 	0
scalar scenarioPRJP1.node[56].wlan.mac 	"numGivenUp AC 3" 	0
scalar scenarioPRJP1.node[56].wlan.mac 	"numDropped AC 0" 	0
scalar scenarioPRJP1.node[56].wlan.mac 	"numDropped AC 1" 	0
scalar scenarioPRJP1.node[56].wlan.mac 	"numDropped AC 2" 	0
scalar scenarioPRJP1.node[56].wlan.mac 	"numDropped AC 3" 	0
scalar scenarioPRJP1.node[56].wlan.mac 	rcvdPkFromLL:count 	40938
attr interpolationmode  none
attr source  packetReceivedFromLower
attr title  "packets received from lower layer, count"
scalar scenarioPRJP1.node[56].wlan.mac 	rcvdPkFromLL:sum(packetBytes) 	15813527
attr interpolationmode  none
attr source  packetReceivedFromLower
attr title  "packets received from lower layer, sum(packetBytes)"
scalar scenarioPRJP1.node[56].wlan.mac 	sentDownPk:count 	5625
attr interpolationmode  none
attr source  packetSentToLower
attr title  "packets sent to lower layer, count"
scalar scenarioPRJP1.node[56].wlan.mac 	sentDownPk:sum(packetBytes) 	2250539
attr interpolationmode  none
attr source  packetSentToLower
attr title  "packets sent to lower layer, sum(packetBytes)"
scalar scenarioPRJP1.node[56].wlan.mac 	rcvdPkFromHL:count 	3011
attr interpolationmode  none
attr source  packetReceivedFromUpper
attr title  "packets received from higher layer, count"
scalar scenarioPRJP1.node[56].wlan.mac 	rcvdPkFromHL:sum(packetBytes) 	1043693
attr interpolationmode  none
attr source  packetReceivedFromUpper
attr title  "packets received from higher layer, sum(packetBytes)"
scalar scenarioPRJP1.node[56].wlan.mac 	passedUpPk:count 	11471
attr interpolationmode  none
attr source  packetSentToUpper
attr title  "packets passed to higher layer, count"
scalar scenarioPRJP1.node[56].wlan.mac 	passedUpPk:sum(packetBytes) 	3403646
attr interpolationmode  none
attr source  packetSentToUpper
attr title  "packets passed to higher layer, sum(packetBytes)"
statistic scenarioPRJP1.node[56].wlan.radio 	radioChannel:histogram
field count 1
field mean 3
field stddev -nan
field sum 3
field sqrsum 9
field min 3
field max 3
attr interpolationmode  sample-hold
attr source  radioChannelChanged
attr title  "Radio channel, histogram"
bin	-INF	0
bin	2	0
bin	3	1
bin	4	0
scalar scenarioPRJP1.node[56].wlan.radio 	transmissionState:count 	22500
attr interpolationmode  sample-hold
attr source  transmissionStateChanged
attr title  "Radio transmission state, count"
scalar scenarioPRJP1.node[56].wlan.radio 	receptionState:count 	102421
attr interpolationmode  sample-hold
attr source  receptionStateChanged
attr title  "Radio reception state, count"
scalar scenarioPRJP1.node[56].wlan.radio 	radioMode:count 	11252
attr interpolationmode  sample-hold
attr source  radioModeChanged
attr title  "Radio mode, count"
statistic scenarioPRJP1.node[56].wlan.radio 	symbolErrorRate:histogram
field count 0
field mean -nan
field stddev -nan
field sum 0
field sqrsum 0
field min -nan
field max -nan
attr source  symbolErrorRate
attr title  "Symbol error rate, histogram"
bin	-INF	0
bin	-0.5	0
bin	-0.46666666666667	0
bin	-0.43333333333333	0
bin	-0.4	0
bin	-0.36666666666667	0
bin	-0.33333333333333	0
bin	-0.3	0
bin	-0.26666666666667	0
bin	-0.23333333333333	0
bin	-0.2	0
bin	-0.16666666666667	0
bin	-0.13333333333333	0
bin	-0.1	0
bin	-0.066666666666667	0
bin	-0.033333333333333	0
bin	0	0
bin	0.033333333333333	0
bin	0.066666666666667	0
bin	0.1	0
bin	0.13333333333333	0
bin	0.16666666666667	0
bin	0.2	0
bin	0.23333333333333	0
bin	0.26666666666667	0
bin	0.3	0
bin	0.33333333333333	0
bin	0.36666666666667	0
bin	0.4	0
bin	0.43333333333333	0
bin	0.46666666666667	0
bin	0.5	0
statistic scenarioPRJP1.node[56].wlan.radio 	bitErrorRate:histogram
field count 0
field mean -nan
field stddev -nan
field sum 0
field sqrsum 0
field min -nan
field max -nan
attr source  bitErrorRate
attr title  "Bit error rate, histogram"
bin	-INF	0
bin	-0.5	0
bin	-0.46666666666667	0
bin	-0.43333333333333	0
bin	-0.4	0
bin	-0.36666666666667	0
bin	-0.33333333333333	0
bin	-0.3	0
bin	-0.26666666666667	0
bin	-0.23333333333333	0
bin	-0.2	0
bin	-0.16666666666667	0
bin	-0.13333333333333	0
bin	-0.1	0
bin	-0.066666666666667	0
bin	-0.033333333333333	0
bin	0	0
bin	0.033333333333333	0
bin	0.066666666666667	0
bin	0.1	0
bin	0.13333333333333	0
bin	0.16666666666667	0
bin	0.2	0
bin	0.23333333333333	0
bin	0.26666666666667	0
bin	0.3	0
bin	0.33333333333333	0
bin	0.36666666666667	0
bin	0.4	0
bin	0.43333333333333	0
bin	0.46666666666667	0
bin	0.5	0
statistic scenarioPRJP1.node[56].wlan.radio 	packetErrorRate:histogram
field count 40938
field mean 0.36190175952421
field stddev 0.47203858523555
field sum 14815.534231402
field sqrsum 14483.367683799
field min 0
field max 1
attr source  packetErrorRate
attr title  "Packet error rate, histogram"
bin	-INF	0
bin	-0.5	0
bin	-0.46666666666667	0
bin	-0.43333333333333	0
bin	-0.4	0
bin	-0.36666666666667	0
bin	-0.33333333333333	0
bin	-0.3	0
bin	-0.26666666666667	0
bin	-0.23333333333333	0
bin	-0.2	0
bin	-0.16666666666667	0
bin	-0.13333333333333	0
bin	-0.1	0
bin	-0.066666666666667	0
bin	-0.033333333333333	0
bin	0	24818
bin	0.033333333333333	311
bin	0.066666666666667	200
bin	0.1	128
bin	0.13333333333333	110
bin	0.16666666666667	100
bin	0.2	84
bin	0.23333333333333	68
bin	0.26666666666667	72
bin	0.3	54
bin	0.33333333333333	51
bin	0.36666666666667	69
bin	0.4	46
bin	0.43333333333333	59
bin	0.46666666666667	56
bin	0.5	14712
statistic scenarioPRJP1.node[56].wlan.radio 	minSNIR:histogram
field count 40938
field mean 462.07427893605
field stddev 8004.7657956056
field sum 18916396.831084
field sqrsum 2631831268215.3
field min 0.00016840425027043
field max 994663.52667309
attr source  minSNIR
attr title  "Min SNIR, histogram"
bin	-INF	0
bin	-20147.240879084	0
bin	-17459.775010022	0
bin	-14772.309140961	0
bin	-12084.8432719	0
bin	-9397.3774028382	0
bin	-6709.9115337769	0
bin	-4022.4456647156	0
bin	-1334.9797956543	39579
bin	1352.486073407	794
bin	4039.9519424684	183
bin	6727.4178115297	109
bin	9414.883680591	60
bin	12102.349549652	35
bin	14789.815418714	29
bin	17477.281287775	19
bin	20164.747156836	13
bin	22852.213025898	9
bin	25539.678894959	13
bin	28227.14476402	5
bin	30914.610633082	5
bin	33602.076502143	12
bin	36289.542371204	4
bin	38977.008240266	2
bin	41664.474109327	5
bin	44351.939978388	5
bin	47039.405847449	5
bin	49726.871716511	4
bin	52414.337585572	1
bin	55101.803454633	2
bin	57789.269323695	4
bin	60476.735192756	41
scalar scenarioPRJP1.node[56].lo0.lo 	droppedPkBitError:count 	0
attr interpolationmode  none
attr source  dropPkBitError
attr title  "packets dropped/bit error, count"
scalar scenarioPRJP1.node[56].lo0.lo 	droppedPkBitError:sum(packetBytes) 	0
attr interpolationmode  none
attr source  dropPkBitError
attr title  "packets dropped/bit error, sum(packetBytes)"
scalar scenarioPRJP1.node[56].lo0.lo 	rcvdPkFromHL:count 	0
attr interpolationmode  none
attr source  packetReceivedFromUpper
attr title  "packets received from higher layer, count"
scalar scenarioPRJP1.node[56].lo0.lo 	rcvdPkFromHL:sum(packetBytes) 	0
attr interpolationmode  none
attr source  packetReceivedFromUpper
attr title  "packets received from higher layer, sum(packetBytes)"
scalar scenarioPRJP1.node[56].lo0.lo 	passedUpPk:count 	0
attr interpolationmode  none
attr source  packetSentToUpper
attr title  "packets passed to higher layer, count"
scalar scenarioPRJP1.node[56].lo0.lo 	passedUpPk:sum(packetBytes) 	0
attr interpolationmode  none
attr source  packetSentToUpper
attr title  "packets passed to higher layer, sum(packetBytes)"
scalar scenarioPRJP1.node[63].app 	"Total sent" 	377
scalar scenarioPRJP1.node[63].app 	"Total received" 	26
scalar scenarioPRJP1.node[63].app 	"Total deleted" 	0
scalar scenarioPRJP1.node[63].app 	dropPk:count 	0
attr interpolationmode  none
attr source  dropPk
attr title  "packets dropped, count"
scalar scenarioPRJP1.node[63].app 	dropPk:sum(packetBytes) 	0
attr interpolationmode  none
attr source  dropPk
attr title  "packets dropped, sum(packetBytes)"
scalar scenarioPRJP1.node[63].app 	outOfOrderPk:count 	0
attr interpolationmode  none
attr source  outOfOrderPk
attr title  "packets received out of order, count"
scalar scenarioPRJP1.node[63].app 	outOfOrderPk:sum(packetBytes) 	0
attr interpolationmode  none
attr source  outOfOrderPk
attr title  "packets received out of order, sum(packetBytes)"
scalar scenarioPRJP1.node[63].app 	rcvdPk:count 	26
attr interpolationmode  none
attr source  rcvdPk
attr title  "packets received, count"
scalar scenarioPRJP1.node[63].app 	rcvdPk:sum(packetBytes) 	13312
attr interpolationmode  none
attr source  rcvdPk
attr title  "packets received, sum(packetBytes)"
statistic scenarioPRJP1.node[63].app 	endToEndDelay:histogram
field count 26
field mean 0.68197531003408
field stddev 1.0114814130379
field sum 17.731358060886
field sqrsum 37.669714633928
field min 0.001095725528
field max 3.436795363357
attr interpolationmode  none
attr source  messageAge(rcvdPk)
attr title  "delay, histogram"
attr unit  s
bin	-INF	0
bin	-1.7167540933865	0
bin	-1.4877074508646	0
bin	-1.2586608083426	0
bin	-1.0296141658207	0
bin	-0.80056752329877	0
bin	-0.57152088077683	0
bin	-0.3424742382549	0
bin	-0.11342759573297	15
bin	0.11561904678897	0
bin	0.3446656893109	1
bin	0.57371233183283	0
bin	0.80275897435477	3
bin	1.0318056168767	3
bin	1.2608522593986	1
bin	1.4898989019206	0
bin	1.7189455444425	0
bin	1.9479921869644	0
bin	2.1770388294864	0
bin	2.4060854720083	1
bin	2.6351321145302	0
bin	2.8641787570522	0
bin	3.0932253995741	1
bin	3.322272042096	1
bin	3.551318684618	0
bin	3.7803653271399	0
bin	4.0094119696618	0
bin	4.2384586121838	0
bin	4.4675052547057	0
bin	4.6965518972276	0
bin	4.9255985397496	0
bin	5.1546451822715	0
scalar scenarioPRJP1.node[63].app 	sentPk:count 	377
attr interpolationmode  none
attr source  sentPk
attr title  "packets sent, count"
scalar scenarioPRJP1.node[63].app 	sentPk:sum(packetBytes) 	193024
attr interpolationmode  none
attr source  sentPk
attr title  "packets sent, sum(packetBytes)"
scalar scenarioPRJP1.node[63].udp 	droppedPkBadChecksum:count 	0
attr interpolationmode  none
attr title  "packets dropped (checksum error), count"
scalar scenarioPRJP1.node[63].udp 	droppedPkWrongPort:count 	0
attr interpolationmode  none
attr title  "packets dropped (wrong port), count"
scalar scenarioPRJP1.node[63].udp 	passedUpPk:count 	26
attr interpolationmode  none
attr title  "packets passed up, count"
scalar scenarioPRJP1.node[63].udp 	rcvdPk:count 	26
attr interpolationmode  none
attr source  rcvdPk
attr title  "packets received, count"
scalar scenarioPRJP1.node[63].udp 	rcvdPk:sum(packetBytes) 	13520
attr interpolationmode  none
attr source  rcvdPk
attr title  "packets received, sum(packetBytes)"
scalar scenarioPRJP1.node[63].udp 	sentPk:count 	377
attr interpolationmode  none
attr source  sentPk
attr title  "packets sent, count"
scalar scenarioPRJP1.node[63].udp 	sentPk:sum(packetBytes) 	196040
attr interpolationmode  none
attr source  sentPk
attr title  "packets sent, sum(packetBytes)"
scalar scenarioPRJP1.node[63].networkLayer.arp 	failedARPResolution:count 	53
attr title  "ARP failed resolutions, count"
scalar scenarioPRJP1.node[63].networkLayer.arp 	completedARPResolution:count 	692
attr title  "ARP completed resolutions, count"
scalar scenarioPRJP1.node[63].networkLayer.arp 	initiatedARPResolution:count 	83
attr title  "ARP initiated resolutions, count"
scalar scenarioPRJP1.node[63].networkLayer.arp 	sentReply:count 	13
attr title  "ARP replies sent, count"
scalar scenarioPRJP1.node[63].networkLayer.arp 	sentReq:count 	213
attr title  "ARP request sent, count"
scalar scenarioPRJP1.node[63].mobility 	startTime 	7.3
scalar scenarioPRJP1.node[63].mobility 	totalTime 	155.9
scalar scenarioPRJP1.node[63].mobility 	stopTime 	163.3
scalar scenarioPRJP1.node[63].mobility 	minSpeed 	2.4754815565613e-13
scalar scenarioPRJP1.node[63].mobility 	maxSpeed 	15.335836650274
scalar scenarioPRJP1.node[63].mobility 	totalDistance 	1484.0899372678
scalar scenarioPRJP1.node[63].mobility 	totalCO2Emission 	407.89937380827
scalar scenarioPRJP1.node[63].wlan.mgmt 	dataQueueLen:max 	3
attr interpolationmode  sample-hold
attr title  "data queue length, max"
scalar scenarioPRJP1.node[63].wlan.mgmt 	dataQueueLen:timeavg 	0
attr interpolationmode  sample-hold
attr title  "data queue length, timeavg"
scalar scenarioPRJP1.node[63].wlan.mgmt 	dropPkByQueue:count 	0
attr interpolationmode  none
attr source  dropPkByQueue
attr title  "packets dropped by queue, count"
scalar scenarioPRJP1.node[63].wlan.mgmt 	dropPkByQueue:sum(packetBytes) 	0
attr interpolationmode  none
attr source  dropPkByQueue
attr title  "packets dropped by queue, sum(packetBytes)"
scalar scenarioPRJP1.node[63].wlan.mac 	"number of received packets" 	458
scalar scenarioPRJP1.node[63].wlan.mac 	"number of collisions" 	16866
scalar scenarioPRJP1.node[63].wlan.mac 	"number of internal collisions" 	0
scalar scenarioPRJP1.node[63].wlan.mac 	"number of retry for AC 0" 	2294
scalar scenarioPRJP1.node[63].wlan.mac 	"number of retry for AC 1" 	0
scalar scenarioPRJP1.node[63].wlan.mac 	"number of retry for AC 2" 	0
scalar scenarioPRJP1.node[63].wlan.mac 	"number of retry for AC 3" 	0
scalar scenarioPRJP1.node[63].wlan.mac 	"sent and received bits" 	7007928
scalar scenarioPRJP1.node[63].wlan.mac 	"sent packet within AC 0" 	218
scalar scenarioPRJP1.node[63].wlan.mac 	"sent packet within AC 1" 	0
scalar scenarioPRJP1.node[63].wlan.mac 	"sent packet within AC 2" 	0
scalar scenarioPRJP1.node[63].wlan.mac 	"sent packet within AC 3" 	0
scalar scenarioPRJP1.node[63].wlan.mac 	"sent in TXOP " 	0
scalar scenarioPRJP1.node[63].wlan.mac 	"sentWithoutRetry AC 0" 	123
scalar scenarioPRJP1.node[63].wlan.mac 	"sentWithoutRetry AC 1" 	0
scalar scenarioPRJP1.node[63].wlan.mac 	"sentWithoutRetry AC 2" 	0
scalar scenarioPRJP1.node[63].wlan.mac 	"sentWithoutRetry AC 3" 	0
scalar scenarioPRJP1.node[63].wlan.mac 	"numGivenUp AC 0" 	341
scalar scenarioPRJP1.node[63].wlan.mac 	"numGivenUp AC 1" 	0
scalar scenarioPRJP1.node[63].wlan.mac 	"numGivenUp AC 2" 	0
scalar scenarioPRJP1.node[63].wlan.mac 	"numGivenUp AC 3" 	0
scalar scenarioPRJP1.node[63].wlan.mac 	"numDropped AC 0" 	0
scalar scenarioPRJP1.node[63].wlan.mac 	"numDropped AC 1" 	0
scalar scenarioPRJP1.node[63].wlan.mac 	"numDropped AC 2" 	0
scalar scenarioPRJP1.node[63].wlan.mac 	"numDropped AC 3" 	0
scalar scenarioPRJP1.node[63].wlan.mac 	rcvdPkFromLL:count 	34578
attr interpolationmode  none
attr source  packetReceivedFromLower
attr title  "packets received from lower layer, count"
scalar scenarioPRJP1.node[63].wlan.mac 	rcvdPkFromLL:sum(packetBytes) 	13507433
attr interpolationmode  none
attr source  packetReceivedFromLower
attr title  "packets received from lower layer, sum(packetBytes)"
scalar scenarioPRJP1.node[63].wlan.mac 	sentDownPk:count 	5746
attr interpolationmode  none
attr source  packetSentToLower
attr title  "packets sent to lower layer, count"
scalar scenarioPRJP1.node[63].wlan.mac 	sentDownPk:sum(packetBytes) 	2326695
attr interpolationmode  none
attr source  packetSentToLower
attr title  "packets sent to lower layer, sum(packetBytes)"
scalar scenarioPRJP1.node[63].wlan.mac 	rcvdPkFromHL:count 	2994
attr interpolationmode  none
attr source  packetReceivedFromUpper
attr title  "packets received from higher layer, count"
scalar scenarioPRJP1.node[63].wlan.mac 	rcvdPkFromHL:sum(packetBytes) 	1062477
attr interpolationmode  none
attr source  packetReceivedFromUpper
attr title  "packets received from higher layer, sum(packetBytes)"
scalar scenarioPRJP1.node[63].wlan.mac 	passedUpPk:count 	8098
attr interpolationmode  none
attr source  packetSentToUpper
attr title  "packets passed to higher layer, count"
scalar scenarioPRJP1.node[63].wlan.mac 	passedUpPk:sum(packetBytes) 	2508533
attr interpolationmode  none
attr source  packetSentToUpper
attr title  "packets passed to higher layer, sum(packetBytes)"
statistic scenarioPRJP1.node[63].wlan.radio 	radioChannel:histogram
field count 1
field mean 3
field stddev -nan
field sum 3
field sqrsum 9
field min 3
field max 3
attr interpolationmode  sample-hold
attr source  radioChannelChanged
attr title  "Radio channel, histogram"
bin	-INF	0
bin	2	0
bin	3	1
bin	4	0
scalar scenarioPRJP1.node[63].wlan.radio 	transmissionState:count 	22984
attr interpolationmode  sample-hold
attr source  transmissionStateChanged
attr title  "Radio transmission state, count"
scalar scenarioPRJP1.node[63].wlan.radio 	receptionState:count 	87782
attr interpolationmode  sample-hold
attr source  receptionStateChanged
attr title  "Radio reception state, count"
scalar scenarioPRJP1.node[63].wlan.radio 	radioMode:count 	11494
attr interpolationmode  sample-hold
attr source  radioModeChanged
attr title  "Radio mode, count"
statistic scenarioPRJP1.node[63].wlan.radio 	symbolErrorRate:histogram
field count 0
field mean -nan
field stddev -nan
field sum 0
field sqrsum 0
field min -nan
field max -nan
attr source  symbolErrorRate
attr title  "Symbol error rate, histogram"
bin	-INF	0
bin	-0.5	0
bin	-0.46666666666667	0
bin	-0.43333333333333	0
bin	-0.4	0
bin	-0.36666666666667	0
bin	-0.33333333333333	0
bin	-0.3	0
bin	-0.26666666666667	0
bin	-0.23333333333333	0
bin	-0.2	0
bin	-0.16666666666667	0
bin	-0.13333333333333	0
bin	-0.1	0
bin	-0.066666666666667	0
bin	-0.033333333333333	0
bin	0	0
bin	0.033333333333333	0
bin	0.066666666666667	0
bin	0.1	0
bin	0.13333333333333	0
bin	0.16666666666667	0
bin	0.2	0
bin	0.23333333333333	0
bin	0.26666666666667	0
bin	0.3	0
bin	0.33333333333333	0
bin	0.36666666666667	0
bin	0.4	0
bin	0.43333333333333	0
bin	0.46666666666667	0
bin	0.5	0
statistic scenarioPRJP1.node[63].wlan.radio 	bitErrorRate:histogram
field count 0
field mean -nan
field stddev -nan
field sum 0
field sqrsum 0
field min -nan
field max -nan
attr source  bitErrorRate
attr title  "Bit error rate, histogram"
bin	-INF	0
bin	-0.5	0
bin	-0.46666666666667	0
bin	-0.43333333333333	0
bin	-0.4	0
bin	-0.36666666666667	0
bin	-0.33333333333333	0
bin	-0.3	0
bin	-0.26666666666667	0
bin	-0.23333333333333	0
bin	-0.2	0
bin	-0.16666666666667	0
bin	-0.13333333333333	0
bin	-0.1	0
bin	-0.066666666666667	0
bin	-0.033333333333333	0
bin	0	0
bin	0.033333333333333	0
bin	0.066666666666667	0
bin	0.1	0
bin	0.13333333333333	0
bin	0.16666666666667	0
bin	0.2	0
bin	0.23333333333333	0
bin	0.26666666666667	0
bin	0.3	0
bin	0.33333333333333	0
bin	0.36666666666667	0
bin	0.4	0
bin	0.43333333333333	0
bin	0.46666666666667	0
bin	0.5	0
statistic scenarioPRJP1.node[63].wlan.radio 	packetErrorRate:histogram
field count 34578
field mean 0.44885015619565
field stddev 0.48514699624113
field sum 15520.340700933
field sqrsum 15104.613128319
field min 0
field max 1
attr source  packetErrorRate
attr title  "Packet error rate, histogram"
bin	-INF	0
bin	-0.5	0
bin	-0.43333333333333	0
bin	-0.36666666666667	0
bin	-0.3	0
bin	-0.23333333333333	0
bin	-0.16666666666667	0
bin	-0.1	0
bin	-0.033333333333333	17370
bin	0.033333333333333	685
bin	0.1	335
bin	0.16666666666667	224
bin	0.23333333333333	159
bin	0.3	134
bin	0.36666666666667	135
bin	0.43333333333333	129
bin	0.5	113
bin	0.56666666666667	113
bin	0.63333333333333	128
bin	0.7	113
bin	0.76666666666667	131
bin	0.83333333333333	165
bin	0.9	204
bin	0.96666666666667	14440
bin	1.0333333333333	0
bin	1.1	0
bin	1.1666666666667	0
bin	1.2333333333333	0
bin	1.3	0
bin	1.3666666666667	0
bin	1.4333333333333	0
bin	1.5	0
statistic scenarioPRJP1.node[63].wlan.radio 	minSNIR:histogram
field count 34578
field mean 287.96708353588
field stddev 6539.1053731665
field sum 9957325.8145036
field sqrsum 1481376412611.3
field min 0.00019200369275283
field max 599756.56754043
attr source  minSNIR
attr title  "Min SNIR, histogram"
bin	-INF	0
bin	-26584.6195862	0
bin	-23040.001896313	0
bin	-19495.384206426	0
bin	-15950.766516539	0
bin	-12406.148826652	0
bin	-8861.5311367654	0
bin	-5316.9134468786	0
bin	-1772.2957569917	34095
bin	1772.3219328951	275
bin	5316.9396227819	62
bin	8861.5573126688	29
bin	12406.175002556	22
bin	15950.792692442	11
bin	19495.410382329	21
bin	23040.028072216	9
bin	26584.645762103	7
bin	30129.26345199	4
bin	33673.881141877	4
bin	37218.498831764	6
bin	40763.11652165	2
bin	44307.734211537	3
bin	47852.351901424	1
bin	51396.969591311	5
bin	54941.587281198	1
bin	58486.204971085	0
bin	62030.822660971	1
bin	65575.440350858	1
bin	69120.058040745	0
bin	72664.675730632	0
bin	76209.293420519	0
bin	79753.911110406	19
scalar scenarioPRJP1.node[63].lo0.lo 	droppedPkBitError:count 	0
attr interpolationmode  none
attr source  dropPkBitError
attr title  "packets dropped/bit error, count"
scalar scenarioPRJP1.node[63].lo0.lo 	droppedPkBitError:sum(packetBytes) 	0
attr interpolationmode  none
attr source  dropPkBitError
attr title  "packets dropped/bit error, sum(packetBytes)"
scalar scenarioPRJP1.node[63].lo0.lo 	rcvdPkFromHL:count 	0
attr interpolationmode  none
attr source  packetReceivedFromUpper
attr title  "packets received from higher layer, count"
scalar scenarioPRJP1.node[63].lo0.lo 	rcvdPkFromHL:sum(packetBytes) 	0
attr interpolationmode  none
attr source  packetReceivedFromUpper
attr title  "packets received from higher layer, sum(packetBytes)"
scalar scenarioPRJP1.node[63].lo0.lo 	passedUpPk:count 	0
attr interpolationmode  none
attr source  packetSentToUpper
attr title  "packets passed to higher layer, count"
scalar scenarioPRJP1.node[63].lo0.lo 	passedUpPk:sum(packetBytes) 	0
attr interpolationmode  none
attr source  packetSentToUpper
attr title  "packets passed to higher layer, sum(packetBytes)"
scalar scenarioPRJP1.node[31].app 	"Total sent" 	606
scalar scenarioPRJP1.node[31].app 	"Total received" 	24
scalar scenarioPRJP1.node[31].app 	"Total deleted" 	0
scalar scenarioPRJP1.node[31].app 	dropPk:count 	0
attr interpolationmode  none
attr source  dropPk
attr title  "packets dropped, count"
scalar scenarioPRJP1.node[31].app 	dropPk:sum(packetBytes) 	0
attr interpolationmode  none
attr source  dropPk
attr title  "packets dropped, sum(packetBytes)"
scalar scenarioPRJP1.node[31].app 	outOfOrderPk:count 	0
attr interpolationmode  none
attr source  outOfOrderPk
attr title  "packets received out of order, count"
scalar scenarioPRJP1.node[31].app 	outOfOrderPk:sum(packetBytes) 	0
attr interpolationmode  none
attr source  outOfOrderPk
attr title  "packets received out of order, sum(packetBytes)"
scalar scenarioPRJP1.node[31].app 	rcvdPk:count 	24
attr interpolationmode  none
attr source  rcvdPk
attr title  "packets received, count"
scalar scenarioPRJP1.node[31].app 	rcvdPk:sum(packetBytes) 	12288
attr interpolationmode  none
attr source  rcvdPk
attr title  "packets received, sum(packetBytes)"
statistic scenarioPRJP1.node[31].app 	endToEndDelay:histogram
field count 24
field mean 0.55872501357662
field stddev 1.7271326541639
field sum 13.409400325839
field sqrsum 76.100873095929
field min 0.001075011007
field max 7.628727894975
attr interpolationmode  none
attr source  messageAge(rcvdPk)
attr title  "delay, histogram"
attr unit  s
bin	-INF	0
bin	-3.812751430977	0
bin	-3.3042412387125	0
bin	-2.7957310464479	0
bin	-2.2872208541834	0
bin	-1.7787106619189	0
bin	-1.2702004696543	0
bin	-0.7616902773898	0
bin	-0.25318008512527	20
bin	0.25533010713927	2
bin	0.7638402994038	0
bin	1.2723504916683	0
bin	1.7808606839329	0
bin	2.2893708761974	0
bin	2.7978810684619	0
bin	3.3063912607265	0
bin	3.814901452991	1
bin	4.3234116452555	0
bin	4.8319218375201	0
bin	5.3404320297846	0
bin	5.8489422220491	0
bin	6.3574524143137	0
bin	6.8659626065782	0
bin	7.3744727988427	1
bin	7.8829829911073	0
bin	8.3914931833718	0
bin	8.9000033756363	0
bin	9.4085135679009	0
bin	9.9170237601654	0
bin	10.42553395243	0
bin	10.934044144694	0
bin	11.442554336959	0
scalar scenarioPRJP1.node[31].app 	sentPk:count 	606
attr interpolationmode  none
attr source  sentPk
attr title  "packets sent, count"
scalar scenarioPRJP1.node[31].app 	sentPk:sum(packetBytes) 	310272
attr interpolationmode  none
attr source  sentPk
attr title  "packets sent, sum(packetBytes)"
scalar scenarioPRJP1.node[31].udp 	droppedPkBadChecksum:count 	0
attr interpolationmode  none
attr title  "packets dropped (checksum error), count"
scalar scenarioPRJP1.node[31].udp 	droppedPkWrongPort:count 	0
attr interpolationmode  none
attr title  "packets dropped (wrong port), count"
scalar scenarioPRJP1.node[31].udp 	passedUpPk:count 	24
attr interpolationmode  none
attr title  "packets passed up, count"
scalar scenarioPRJP1.node[31].udp 	rcvdPk:count 	24
attr interpolationmode  none
attr source  rcvdPk
attr title  "packets received, count"
scalar scenarioPRJP1.node[31].udp 	rcvdPk:sum(packetBytes) 	12480
attr interpolationmode  none
attr source  rcvdPk
attr title  "packets received, sum(packetBytes)"
scalar scenarioPRJP1.node[31].udp 	sentPk:count 	605
attr interpolationmode  none
attr source  sentPk
attr title  "packets sent, count"
scalar scenarioPRJP1.node[31].udp 	sentPk:sum(packetBytes) 	314600
attr interpolationmode  none
attr source  sentPk
attr title  "packets sent, sum(packetBytes)"
scalar scenarioPRJP1.node[31].networkLayer.arp 	failedARPResolution:count 	75
attr title  "ARP failed resolutions, count"
scalar scenarioPRJP1.node[31].networkLayer.arp 	completedARPResolution:count 	1142
attr title  "ARP completed resolutions, count"
scalar scenarioPRJP1.node[31].networkLayer.arp 	initiatedARPResolution:count 	108
attr title  "ARP initiated resolutions, count"
scalar scenarioPRJP1.node[31].networkLayer.arp 	sentReply:count 	17
attr title  "ARP replies sent, count"
scalar scenarioPRJP1.node[31].networkLayer.arp 	sentReq:count 	291
attr title  "ARP request sent, count"
scalar scenarioPRJP1.node[31].mobility 	startTime 	2.5
scalar scenarioPRJP1.node[31].mobility 	totalTime 	243.4
scalar scenarioPRJP1.node[31].mobility 	stopTime 	246
scalar scenarioPRJP1.node[31].mobility 	minSpeed 	2.4767815491812e-13
scalar scenarioPRJP1.node[31].mobility 	maxSpeed 	18.00386755193
scalar scenarioPRJP1.node[31].mobility 	totalDistance 	2233.1528833486
scalar scenarioPRJP1.node[31].mobility 	totalCO2Emission 	654.39464917859
scalar scenarioPRJP1.node[31].wlan.mgmt 	dataQueueLen:max 	11
attr interpolationmode  sample-hold
attr title  "data queue length, max"
scalar scenarioPRJP1.node[31].wlan.mgmt 	dataQueueLen:timeavg 	0
attr interpolationmode  sample-hold
attr title  "data queue length, timeavg"
scalar scenarioPRJP1.node[31].wlan.mgmt 	dropPkByQueue:count 	0
attr interpolationmode  none
attr source  dropPkByQueue
attr title  "packets dropped by queue, count"
scalar scenarioPRJP1.node[31].wlan.mgmt 	dropPkByQueue:sum(packetBytes) 	0
attr interpolationmode  none
attr source  dropPkByQueue
attr title  "packets dropped by queue, sum(packetBytes)"
scalar scenarioPRJP1.node[31].wlan.mac 	"number of received packets" 	780
scalar scenarioPRJP1.node[31].wlan.mac 	"number of collisions" 	24153
scalar scenarioPRJP1.node[31].wlan.mac 	"number of internal collisions" 	0
scalar scenarioPRJP1.node[31].wlan.mac 	"number of retry for AC 0" 	3656
scalar scenarioPRJP1.node[31].wlan.mac 	"number of retry for AC 1" 	0
scalar scenarioPRJP1.node[31].wlan.mac 	"number of retry for AC 2" 	0
scalar scenarioPRJP1.node[31].wlan.mac 	"number of retry for AC 3" 	0
scalar scenarioPRJP1.node[31].wlan.mac 	"sent and received bits" 	11769200
scalar scenarioPRJP1.node[31].wlan.mac 	"sent packet within AC 0" 	452
scalar scenarioPRJP1.node[31].wlan.mac 	"sent packet within AC 1" 	0
scalar scenarioPRJP1.node[31].wlan.mac 	"sent packet within AC 2" 	0
scalar scenarioPRJP1.node[31].wlan.mac 	"sent packet within AC 3" 	0
scalar scenarioPRJP1.node[31].wlan.mac 	"sent in TXOP " 	0
scalar scenarioPRJP1.node[31].wlan.mac 	"sentWithoutRetry AC 0" 	328
scalar scenarioPRJP1.node[31].wlan.mac 	"sentWithoutRetry AC 1" 	0
scalar scenarioPRJP1.node[31].wlan.mac 	"sentWithoutRetry AC 2" 	0
scalar scenarioPRJP1.node[31].wlan.mac 	"sentWithoutRetry AC 3" 	0
scalar scenarioPRJP1.node[31].wlan.mac 	"numGivenUp AC 0" 	559
scalar scenarioPRJP1.node[31].wlan.mac 	"numGivenUp AC 1" 	0
scalar scenarioPRJP1.node[31].wlan.mac 	"numGivenUp AC 2" 	0
scalar scenarioPRJP1.node[31].wlan.mac 	"numGivenUp AC 3" 	0
scalar scenarioPRJP1.node[31].wlan.mac 	"numDropped AC 0" 	0
scalar scenarioPRJP1.node[31].wlan.mac 	"numDropped AC 1" 	0
scalar scenarioPRJP1.node[31].wlan.mac 	"numDropped AC 2" 	0
scalar scenarioPRJP1.node[31].wlan.mac 	"numDropped AC 3" 	0
scalar scenarioPRJP1.node[31].wlan.mac 	rcvdPkFromLL:count 	55088
attr interpolationmode  none
attr source  packetReceivedFromLower
attr title  "packets received from lower layer, count"
scalar scenarioPRJP1.node[31].wlan.mac 	rcvdPkFromLL:sum(packetBytes) 	22222302
attr interpolationmode  none
attr source  packetReceivedFromLower
attr title  "packets received from lower layer, sum(packetBytes)"
scalar scenarioPRJP1.node[31].wlan.mac 	sentDownPk:count 	9295
attr interpolationmode  none
attr source  packetSentToLower
attr title  "packets sent to lower layer, count"
scalar scenarioPRJP1.node[31].wlan.mac 	sentDownPk:sum(packetBytes) 	3805329
attr interpolationmode  none
attr source  packetSentToLower
attr title  "packets sent to lower layer, sum(packetBytes)"
scalar scenarioPRJP1.node[31].wlan.mac 	rcvdPkFromHL:count 	4859
attr interpolationmode  none
attr source  packetReceivedFromUpper
attr title  "packets received from higher layer, count"
scalar scenarioPRJP1.node[31].wlan.mac 	rcvdPkFromHL:sum(packetBytes) 	1778814
attr interpolationmode  none
attr source  packetReceivedFromUpper
attr title  "packets received from higher layer, sum(packetBytes)"
scalar scenarioPRJP1.node[31].wlan.mac 	passedUpPk:count 	13957
attr interpolationmode  none
attr source  packetSentToUpper
attr title  "packets passed to higher layer, count"
scalar scenarioPRJP1.node[31].wlan.mac 	passedUpPk:sum(packetBytes) 	4578369
attr interpolationmode  none
attr source  packetSentToUpper
attr title  "packets passed to higher layer, sum(packetBytes)"
statistic scenarioPRJP1.node[31].wlan.radio 	radioChannel:histogram
field count 1
field mean 3
field stddev -nan
field sum 3
field sqrsum 9
field min 3
field max 3
attr interpolationmode  sample-hold
attr source  radioChannelChanged
attr title  "Radio channel, histogram"
bin	-INF	0
bin	2	0
bin	3	1
bin	4	0
scalar scenarioPRJP1.node[31].wlan.radio 	transmissionState:count 	37180
attr interpolationmode  sample-hold
attr source  transmissionStateChanged
attr title  "Radio transmission state, count"
scalar scenarioPRJP1.node[31].wlan.radio 	receptionState:count 	143555
attr interpolationmode  sample-hold
attr source  receptionStateChanged
attr title  "Radio reception state, count"
scalar scenarioPRJP1.node[31].wlan.radio 	radioMode:count 	18592
attr interpolationmode  sample-hold
attr source  radioModeChanged
attr title  "Radio mode, count"
statistic scenarioPRJP1.node[31].wlan.radio 	symbolErrorRate:histogram
field count 0
field mean -nan
field stddev -nan
field sum 0
field sqrsum 0
field min -nan
field max -nan
attr source  symbolErrorRate
attr title  "Symbol error rate, histogram"
bin	-INF	0
bin	-0.5	0
bin	-0.46666666666667	0
bin	-0.43333333333333	0
bin	-0.4	0
bin	-0.36666666666667	0
bin	-0.33333333333333	0
bin	-0.3	0
bin	-0.26666666666667	0
bin	-0.23333333333333	0
bin	-0.2	0
bin	-0.16666666666667	0
bin	-0.13333333333333	0
bin	-0.1	0
bin	-0.066666666666667	0
bin	-0.033333333333333	0
bin	0	0
bin	0.033333333333333	0
bin	0.066666666666667	0
bin	0.1	0
bin	0.13333333333333	0
bin	0.16666666666667	0
bin	0.2	0
bin	0.23333333333333	0
bin	0.26666666666667	0
bin	0.3	0
bin	0.33333333333333	0
bin	0.36666666666667	0
bin	0.4	0
bin	0.43333333333333	0
bin	0.46666666666667	0
bin	0.5	0
statistic scenarioPRJP1.node[31].wlan.radio 	bitErrorRate:histogram
field count 0
field mean -nan
field stddev -nan
field sum 0
field sqrsum 0
field min -nan
field max -nan
attr source  bitErrorRate
attr title  "Bit error rate, histogram"
bin	-INF	0
bin	-0.5	0
bin	-0.46666666666667	0
bin	-0.43333333333333	0
bin	-0.4	0
bin	-0.36666666666667	0
bin	-0.33333333333333	0
bin	-0.3	0
bin	-0.26666666666667	0
bin	-0.23333333333333	0
bin	-0.2	0
bin	-0.16666666666667	0
bin	-0.13333333333333	0
bin	-0.1	0
bin	-0.066666666666667	0
bin	-0.033333333333333	0
bin	0	0
bin	0.033333333333333	0
bin	0.066666666666667	0
bin	0.1	0
bin	0.13333333333333	0
bin	0.16666666666667	0
bin	0.2	0
bin	0.23333333333333	0
bin	0.26666666666667	0
bin	0.3	0
bin	0.33333333333333	0
bin	0.36666666666667	0
bin	0.4	0
bin	0.43333333333333	0
bin	0.46666666666667	0
bin	0.5	0
statistic scenarioPRJP1.node[31].wlan.radio 	packetErrorRate:histogram
field count 55088
field mean 0.41030267639852
field stddev 0.48272982103223
field sum 22602.753837441
field sqrsum 22110.788242708
field min 0
field max 1
attr source  packetErrorRate
attr title  "Packet error rate, histogram"
bin	-INF	28924
bin	-2.9753977059954e-14	0
bin	-2.5786780118627e-14	0
bin	-2.18195831773e-14	0
bin	-1.7852386235973e-14	0
bin	-1.3885189294645e-14	0
bin	-9.9179923533181e-15	0
bin	-5.9507954119908e-15	0
bin	-1.9835984706636e-15	21618
bin	1.9835984706636e-15	0
bin	5.9507954119908e-15	0
bin	9.9179923533181e-15	0
bin	1.3885189294645e-14	23
bin	1.7852386235973e-14	0
bin	2.18195831773e-14	0
bin	2.5786780118627e-14	0
bin	2.9753977059954e-14	18
bin	3.3721174001281e-14	0
bin	3.7688370942609e-14	0
bin	4.1655567883936e-14	10
bin	4.5622764825263e-14	0
bin	4.958996176659e-14	0
bin	5.3557158707918e-14	3
bin	5.7524355649245e-14	21
bin	6.1491552590572e-14	0
bin	6.5458749531899e-14	0
bin	6.9425946473226e-14	0
bin	7.3393143414554e-14	3
bin	7.7360340355881e-14	5
bin	8.1327537297208e-14	0
bin	8.5294734238535e-14	0
bin	8.9261931179863e-14	4463
statistic scenarioPRJP1.node[31].wlan.radio 	minSNIR:histogram
field count 55088
field mean 766.89226266788
field stddev 12426.937165465
field sum 42246560.965848
field sqrsum 8539416065778.2
field min 6.0071140793612e-05
field max 1317918.8052396
attr source  minSNIR
attr title  "Min SNIR, histogram"
bin	-INF	0
bin	-37060.636295156	0
bin	-32118.270634006	0
bin	-27175.904972856	0
bin	-22233.539311707	0
bin	-17291.173650557	0
bin	-12348.807989408	0
bin	-7406.442328258	0
bin	-2464.0766671084	53309
bin	2478.2889940412	1119
bin	7420.6546551909	229
bin	12363.02031634	117
bin	17305.38597749	63
bin	22247.75163864	43
bin	27190.117299789	25
bin	32132.482960939	23
bin	37074.848622089	13
bin	42017.214283238	7
bin	46959.579944388	9
bin	51901.945605537	6
bin	56844.311266687	8
bin	61786.676927837	9
bin	66729.042588986	8
bin	71671.408250136	11
bin	76613.773911285	7
bin	81556.139572435	4
bin	86498.505233585	6
bin	91440.870894734	2
bin	96383.236555884	3
bin	101325.60221703	1
bin	106267.96787818	4
bin	111210.33353933	62
scalar scenarioPRJP1.node[31].lo0.lo 	droppedPkBitError:count 	0
attr interpolationmode  none
attr source  dropPkBitError
attr title  "packets dropped/bit error, count"
scalar scenarioPRJP1.node[31].lo0.lo 	droppedPkBitError:sum(packetBytes) 	0
attr interpolationmode  none
attr source  dropPkBitError
attr title  "packets dropped/bit error, sum(packetBytes)"
scalar scenarioPRJP1.node[31].lo0.lo 	rcvdPkFromHL:count 	0
attr interpolationmode  none
attr source  packetReceivedFromUpper
attr title  "packets received from higher layer, count"
scalar scenarioPRJP1.node[31].lo0.lo 	rcvdPkFromHL:sum(packetBytes) 	0
attr interpolationmode  none
attr source  packetReceivedFromUpper
attr title  "packets received from higher layer, sum(packetBytes)"
scalar scenarioPRJP1.node[31].lo0.lo 	passedUpPk:count 	0
attr interpolationmode  none
attr source  packetSentToUpper
attr title  "packets passed to higher layer, count"
scalar scenarioPRJP1.node[31].lo0.lo 	passedUpPk:sum(packetBytes) 	0
attr interpolationmode  none
attr source  packetSentToUpper
attr title  "packets passed to higher layer, sum(packetBytes)"
scalar scenarioPRJP1.node[85].app 	"Total sent" 	714
scalar scenarioPRJP1.node[85].app 	"Total received" 	45
scalar scenarioPRJP1.node[85].app 	"Total deleted" 	0
scalar scenarioPRJP1.node[85].app 	dropPk:count 	0
attr interpolationmode  none
attr source  dropPk
attr title  "packets dropped, count"
scalar scenarioPRJP1.node[85].app 	dropPk:sum(packetBytes) 	0
attr interpolationmode  none
attr source  dropPk
attr title  "packets dropped, sum(packetBytes)"
scalar scenarioPRJP1.node[85].app 	outOfOrderPk:count 	0
attr interpolationmode  none
attr source  outOfOrderPk
attr title  "packets received out of order, count"
scalar scenarioPRJP1.node[85].app 	outOfOrderPk:sum(packetBytes) 	0
attr interpolationmode  none
attr source  outOfOrderPk
attr title  "packets received out of order, sum(packetBytes)"
scalar scenarioPRJP1.node[85].app 	rcvdPk:count 	45
attr interpolationmode  none
attr source  rcvdPk
attr title  "packets received, count"
scalar scenarioPRJP1.node[85].app 	rcvdPk:sum(packetBytes) 	23040
attr interpolationmode  none
attr source  rcvdPk
attr title  "packets received, sum(packetBytes)"
statistic scenarioPRJP1.node[85].app 	endToEndDelay:histogram
field count 45
field mean 0.41048649362347
field stddev 1.1350000297739
field sum 18.471892213056
field sqrsum 64.264365238947
field min 0.000971052193
field max 5.646750436336
attr interpolationmode  none
attr source  messageAge(rcvdPk)
attr title  "delay, histogram"
attr unit  s
bin	-INF	0
bin	-2.8219186398785	0
bin	-2.4455333476023	0
bin	-2.0691480553261	0
bin	-1.6927627630499	0
bin	-1.3163774707737	0
bin	-0.9399921784975	0
bin	-0.5636068862213	0
bin	-0.1872215939451	38
bin	0.1891636983311	1
bin	0.5655489906073	0
bin	0.9419342828835	2
bin	1.3183195751597	0
bin	1.6947048674359	0
bin	2.0710901597121	1
bin	2.4474754519883	0
bin	2.8238607442645	0
bin	3.2002460365407	1
bin	3.5766313288169	1
bin	3.9530166210931	0
bin	4.3294019133693	0
bin	4.7057872056455	0
bin	5.0821724979217	0
bin	5.4585577901979	1
bin	5.8349430824741	0
bin	6.2113283747503	0
bin	6.5877136670265	0
bin	6.9640989593027	0
bin	7.3404842515789	0
bin	7.7168695438551	0
bin	8.0932548361313	0
bin	8.4696401284075	0
scalar scenarioPRJP1.node[85].app 	sentPk:count 	714
attr interpolationmode  none
attr source  sentPk
attr title  "packets sent, count"
scalar scenarioPRJP1.node[85].app 	sentPk:sum(packetBytes) 	365568
attr interpolationmode  none
attr source  sentPk
attr title  "packets sent, sum(packetBytes)"
scalar scenarioPRJP1.node[85].udp 	droppedPkBadChecksum:count 	0
attr interpolationmode  none
attr title  "packets dropped (checksum error), count"
scalar scenarioPRJP1.node[85].udp 	droppedPkWrongPort:count 	0
attr interpolationmode  none
attr title  "packets dropped (wrong port), count"
scalar scenarioPRJP1.node[85].udp 	passedUpPk:count 	45
attr interpolationmode  none
attr title  "packets passed up, count"
scalar scenarioPRJP1.node[85].udp 	rcvdPk:count 	45
attr interpolationmode  none
attr source  rcvdPk
attr title  "packets received, count"
scalar scenarioPRJP1.node[85].udp 	rcvdPk:sum(packetBytes) 	23400
attr interpolationmode  none
attr source  rcvdPk
attr title  "packets received, sum(packetBytes)"
scalar scenarioPRJP1.node[85].udp 	sentPk:count 	714
attr interpolationmode  none
attr source  sentPk
attr title  "packets sent, count"
scalar scenarioPRJP1.node[85].udp 	sentPk:sum(packetBytes) 	371280
attr interpolationmode  none
attr source  sentPk
attr title  "packets sent, sum(packetBytes)"
scalar scenarioPRJP1.node[85].networkLayer.arp 	failedARPResolution:count 	93
attr title  "ARP failed resolutions, count"
scalar scenarioPRJP1.node[85].networkLayer.arp 	completedARPResolution:count 	1625
attr title  "ARP completed resolutions, count"
scalar scenarioPRJP1.node[85].networkLayer.arp 	initiatedARPResolution:count 	135
attr title  "ARP initiated resolutions, count"
scalar scenarioPRJP1.node[85].networkLayer.arp 	sentReply:count 	29
attr title  "ARP replies sent, count"
scalar scenarioPRJP1.node[85].networkLayer.arp 	sentReq:count 	345
attr title  "ARP request sent, count"
scalar scenarioPRJP1.node[85].mobility 	startTime 	9.7
scalar scenarioPRJP1.node[85].mobility 	totalTime 	273.3
scalar scenarioPRJP1.node[85].mobility 	stopTime 	283.1
scalar scenarioPRJP1.node[85].mobility 	minSpeed 	2.4756879159076e-13
scalar scenarioPRJP1.node[85].mobility 	maxSpeed 	18.126357789278
scalar scenarioPRJP1.node[85].mobility 	totalDistance 	2205.5796441286
scalar scenarioPRJP1.node[85].mobility 	totalCO2Emission 	721.85567085253
scalar scenarioPRJP1.node[85].wlan.mgmt 	dataQueueLen:max 	6
attr interpolationmode  sample-hold
attr title  "data queue length, max"
scalar scenarioPRJP1.node[85].wlan.mgmt 	dataQueueLen:timeavg 	0
attr interpolationmode  sample-hold
attr title  "data queue length, timeavg"
scalar scenarioPRJP1.node[85].wlan.mgmt 	dropPkByQueue:count 	0
attr interpolationmode  none
attr source  dropPkByQueue
attr title  "packets dropped by queue, count"
scalar scenarioPRJP1.node[85].wlan.mgmt 	dropPkByQueue:sum(packetBytes) 	0
attr interpolationmode  none
attr source  dropPkByQueue
attr title  "packets dropped by queue, sum(packetBytes)"
scalar scenarioPRJP1.node[85].wlan.mac 	"number of received packets" 	712
scalar scenarioPRJP1.node[85].wlan.mac 	"number of collisions" 	32921
scalar scenarioPRJP1.node[85].wlan.mac 	"number of internal collisions" 	0
scalar scenarioPRJP1.node[85].wlan.mac 	"number of retry for AC 0" 	3265
scalar scenarioPRJP1.node[85].wlan.mac 	"number of retry for AC 1" 	0
scalar scenarioPRJP1.node[85].wlan.mac 	"number of retry for AC 2" 	0
scalar scenarioPRJP1.node[85].wlan.mac 	"number of retry for AC 3" 	0
scalar scenarioPRJP1.node[85].wlan.mac 	"sent and received bits" 	13016304
scalar scenarioPRJP1.node[85].wlan.mac 	"sent packet within AC 0" 	547
scalar scenarioPRJP1.node[85].wlan.mac 	"sent packet within AC 1" 	0
scalar scenarioPRJP1.node[85].wlan.mac 	"sent packet within AC 2" 	0
scalar scenarioPRJP1.node[85].wlan.mac 	"sent packet within AC 3" 	0
scalar scenarioPRJP1.node[85].wlan.mac 	"sent in TXOP " 	0
scalar scenarioPRJP1.node[85].wlan.mac 	"sentWithoutRetry AC 0" 	389
scalar scenarioPRJP1.node[85].wlan.mac 	"sentWithoutRetry AC 1" 	0
scalar scenarioPRJP1.node[85].wlan.mac 	"sentWithoutRetry AC 2" 	0
scalar scenarioPRJP1.node[85].wlan.mac 	"sentWithoutRetry AC 3" 	0
scalar scenarioPRJP1.node[85].wlan.mac 	"numGivenUp AC 0" 	488
scalar scenarioPRJP1.node[85].wlan.mac 	"numGivenUp AC 1" 	0
scalar scenarioPRJP1.node[85].wlan.mac 	"numGivenUp AC 2" 	0
scalar scenarioPRJP1.node[85].wlan.mac 	"numGivenUp AC 3" 	0
scalar scenarioPRJP1.node[85].wlan.mac 	"numDropped AC 0" 	0
scalar scenarioPRJP1.node[85].wlan.mac 	"numDropped AC 1" 	0
scalar scenarioPRJP1.node[85].wlan.mac 	"numDropped AC 2" 	0
scalar scenarioPRJP1.node[85].wlan.mac 	"numDropped AC 3" 	0
scalar scenarioPRJP1.node[85].wlan.mac 	rcvdPkFromLL:count 	75842
attr interpolationmode  none
attr source  packetReceivedFromLower
attr title  "packets received from lower layer, count"
scalar scenarioPRJP1.node[85].wlan.mac 	rcvdPkFromLL:sum(packetBytes) 	29279968
attr interpolationmode  none
attr source  packetReceivedFromLower
attr title  "packets received from lower layer, sum(packetBytes)"
scalar scenarioPRJP1.node[85].wlan.mac 	sentDownPk:count 	9591
attr interpolationmode  none
attr source  packetSentToLower
attr title  "packets sent to lower layer, count"
scalar scenarioPRJP1.node[85].wlan.mac 	sentDownPk:sum(packetBytes) 	3669192
attr interpolationmode  none
attr source  packetSentToLower
attr title  "packets sent to lower layer, sum(packetBytes)"
scalar scenarioPRJP1.node[85].wlan.mac 	rcvdPkFromHL:count 	5614
attr interpolationmode  none
attr source  packetReceivedFromUpper
attr title  "packets received from higher layer, count"
scalar scenarioPRJP1.node[85].wlan.mac 	rcvdPkFromHL:sum(packetBytes) 	1891199
attr interpolationmode  none
attr source  packetReceivedFromUpper
attr title  "packets received from higher layer, sum(packetBytes)"
scalar scenarioPRJP1.node[85].wlan.mac 	passedUpPk:count 	19868
attr interpolationmode  none
attr source  packetSentToUpper
attr title  "packets passed to higher layer, count"
scalar scenarioPRJP1.node[85].wlan.mac 	passedUpPk:sum(packetBytes) 	5812541
attr interpolationmode  none
attr source  packetSentToUpper
attr title  "packets passed to higher layer, sum(packetBytes)"
statistic scenarioPRJP1.node[85].wlan.radio 	radioChannel:histogram
field count 1
field mean 3
field stddev -nan
field sum 3
field sqrsum 9
field min 3
field max 3
attr interpolationmode  sample-hold
attr source  radioChannelChanged
attr title  "Radio channel, histogram"
bin	-INF	0
bin	2	0
bin	3	1
bin	4	0
scalar scenarioPRJP1.node[85].wlan.radio 	transmissionState:count 	38364
attr interpolationmode  sample-hold
attr source  transmissionStateChanged
attr title  "Radio transmission state, count"
scalar scenarioPRJP1.node[85].wlan.radio 	receptionState:count 	193035
attr interpolationmode  sample-hold
attr source  receptionStateChanged
attr title  "Radio reception state, count"
scalar scenarioPRJP1.node[85].wlan.radio 	radioMode:count 	19184
attr interpolationmode  sample-hold
attr source  radioModeChanged
[...]
scalar scenarioPRJP1.node[76].wlan.mac 	passedUpPk:count 	51867
attr interpolationmode  none
attr source  packetSentToUpper
attr title  "packets passed to higher layer, count"
scalar scenarioPRJP1.node[76].wlan.mac 	passedUpPk:sum(packetBytes) 	16064644
attr interpolationmode  none
attr source  packetSentToUpper
attr title  "packets passed to higher layer, sum(packetBytes)"
statistic scenarioPRJP1.node[76].wlan.radio 	radioChannel:histogram
field count 1
field mean 3
field stddev -nan
field sum 3
field sqrsum 9
field min 3
field max 3
attr interpolationmode  sample-hold
attr source  radioChannelChanged
attr title  "Radio channel, histogram"
bin	-INF	0
bin	2	0
bin	3	1
bin	4	0
scalar scenarioPRJP1.node[76].wlan.radio 	transmissionState:count 	148382
attr interpolationmode  sample-hold
attr source  transmissionStateChanged
attr title  "Radio transmission state, count"
scalar scenarioPRJP1.node[76].wlan.radio 	receptionState:count 	589509
attr interpolationmode  sample-hold
attr source  receptionStateChanged
attr title  "Radio reception state, count"
scalar scenarioPRJP1.node[76].wlan.radio 	radioMode:count 	74193
attr interpolationmode  sample-hold
attr source  radioModeChanged
attr title  "Radio mode, count"
statistic scenarioPRJP1.node[76].wlan.radio 	symbolErrorRate:histogram
field count 0
field mean -nan
field stddev -nan
field sum 0
field sqrsum 0
field min -nan
field max -nan
attr source  symbolErrorRate
attr title  "Symbol error rate, histogram"
bin	-INF	0
bin	-0.5	0
bin	-0.46666666666667	0
bin	-0.43333333333333	0
bin	-0.4	0
bin	-0.36666666666667	0
bin	-0.33333333333333	0
bin	-0.3	0
bin	-0.26666666666667	0
bin	-0.23333333333333	0
bin	-0.2	0
bin	-0.16666666666667	0
bin	-0.13333333333333	0
bin	-0.1	0
bin	-0.066666666666667	0
bin	-0.033333333333333	0
bin	0	0
bin	0.033333333333333	0
bin	0.066666666666667	0
bin	0.1	0
bin	0.13333333333333	0
bin	0.16666666666667	0
bin	0.2	0
bin	0.23333333333333	0
bin	0.26666666666667	0
bin	0.3	0
bin	0.33333333333333	0
bin	0.36666666666667	0
bin	0.4	0
bin	0.43333333333333	0
bin	0.46666666666667	0
bin	0.5	0
statistic scenarioPRJP1.node[76].wlan.radio 	bitErrorRate:histogram
field count 0
field mean -nan
field stddev -nan
field sum 0
field sqrsum 0
field min -nan
field max -nan
attr source  bitErrorRate
attr title  "Bit error rate, histogram"
bin	-INF	0
bin	-0.5	0
bin	-0.46666666666667	0
bin	-0.43333333333333	0
bin	-0.4	0
bin	-0.36666666666667	0
bin	-0.33333333333333	0
bin	-0.3	0
bin	-0.26666666666667	0
bin	-0.23333333333333	0
bin	-0.2	0
bin	-0.16666666666667	0
bin	-0.13333333333333	0
bin	-0.1	0
bin	-0.066666666666667	0
bin	-0.033333333333333	0
bin	0	0
bin	0.033333333333333	0
bin	0.066666666666667	0
bin	0.1	0
bin	0.13333333333333	0
bin	0.16666666666667	0
bin	0.2	0
bin	0.23333333333333	0
bin	0.26666666666667	0
bin	0.3	0
bin	0.33333333333333	0
bin	0.36666666666667	0
bin	0.4	0
bin	0.43333333333333	0
bin	0.46666666666667	0
bin	0.5	0
statistic scenarioPRJP1.node[76].wlan.radio 	packetErrorRate:histogram
field count 223131
field mean 0.45205843917956
field stddev 0.4878832980264
field sum 100868.25159257
field sqrsum 98710.0033783
field min 0
field max 1
attr source  packetErrorRate
attr title  "Packet error rate, histogram"
bin	-INF	0
bin	-0.5	0
bin	-0.43333333333333	0
bin	-0.36666666666667	0
bin	-0.3	0
bin	-0.23333333333333	0
bin	-0.16666666666667	0
bin	-0.1	0
bin	-0.033333333333333	113690
bin	0.033333333333333	3336
bin	0.1	1674
bin	0.16666666666667	1139
bin	0.23333333333333	930
bin	0.3	776
bin	0.36666666666667	715
bin	0.43333333333333	654
bin	0.5	578
bin	0.56666666666667	603
bin	0.63333333333333	560
bin	0.7	570
bin	0.76666666666667	666
bin	0.83333333333333	794
bin	0.9	1257
bin	0.96666666666667	95189
bin	1.0333333333333	0
bin	1.1	0
bin	1.1666666666667	0
bin	1.2333333333333	0
bin	1.3	0
bin	1.3666666666667	0
bin	1.4333333333333	0
bin	1.5	0
statistic scenarioPRJP1.node[76].wlan.radio 	minSNIR:histogram
field count 223131
field mean 397.95850165567
field stddev 9363.4110753877
field sum 88796878.432932
field sqrsum 19597918156971
field min 0.0001174535464649
field max 2664493.3315974
attr source  minSNIR
attr title  "Min SNIR, histogram"
bin	-INF	0
bin	-10640.221651821	0
bin	-9221.513759526	0
bin	-7802.8058672313	0
bin	-6384.0979749365	0
bin	-4965.3900826417	0
bin	-3546.6821903469	0
bin	-2127.9742980522	0
bin	-709.26640575741	214417
bin	709.44148653736	5002
bin	2128.1493788321	1262
bin	3546.8572711269	566
bin	4965.5651634217	280
bin	6384.2730557164	230
bin	7802.9809480112	167
bin	9221.688840306	133
bin	10640.396732601	94
bin	12059.104624896	75
bin	13477.81251719	62
bin	14896.520409485	62
bin	16315.22830178	64
bin	17733.936194075	47
bin	19152.644086369	38
bin	20571.351978664	33
bin	21990.059870959	34
bin	23408.767763254	25
bin	24827.475655548	26
bin	26246.183547843	25
bin	27664.891440138	22
bin	29083.599332433	23
bin	30502.307224728	16
bin	31921.015117022	428
scalar scenarioPRJP1.node[76].lo0.lo 	droppedPkBitError:count 	0
attr interpolationmode  none
attr source  dropPkBitError
attr title  "packets dropped/bit error, count"
scalar scenarioPRJP1.node[76].lo0.lo 	droppedPkBitError:sum(packetBytes) 	0
attr interpolationmode  none
attr source  dropPkBitError
attr title  "packets dropped/bit error, sum(packetBytes)"
scalar scenarioPRJP1.node[76].lo0.lo 	rcvdPkFromHL:count 	0
attr interpolationmode  none
attr source  packetReceivedFromUpper
attr title  "packets received from higher layer, count"
scalar scenarioPRJP1.node[76].lo0.lo 	rcvdPkFromHL:sum(packetBytes) 	0
attr interpolationmode  none
attr source  packetReceivedFromUpper
attr title  "packets received from higher layer, sum(packetBytes)"
scalar scenarioPRJP1.node[76].lo0.lo 	passedUpPk:count 	0
attr interpolationmode  none
attr source  packetSentToUpper
attr title  "packets passed to higher layer, count"
scalar scenarioPRJP1.node[76].lo0.lo 	passedUpPk:sum(packetBytes) 	0
attr interpolationmode  none
attr source  packetSentToUpper
attr title  "packets passed to higher layer, sum(packetBytes)"
scalar scenarioPRJP1.node[98].app 	"Total sent" 	2615
scalar scenarioPRJP1.node[98].app 	"Total received" 	141
scalar scenarioPRJP1.node[98].app 	"Total deleted" 	0
scalar scenarioPRJP1.node[98].app 	dropPk:count 	0
attr interpolationmode  none
attr source  dropPk
attr title  "packets dropped, count"
scalar scenarioPRJP1.node[98].app 	dropPk:sum(packetBytes) 	0
attr interpolationmode  none
attr source  dropPk
attr title  "packets dropped, sum(packetBytes)"
scalar scenarioPRJP1.node[98].app 	outOfOrderPk:count 	0
attr interpolationmode  none
attr source  outOfOrderPk
attr title  "packets received out of order, count"
scalar scenarioPRJP1.node[98].app 	outOfOrderPk:sum(packetBytes) 	0
attr interpolationmode  none
attr source  outOfOrderPk
attr title  "packets received out of order, sum(packetBytes)"
scalar scenarioPRJP1.node[98].app 	rcvdPk:count 	141
attr interpolationmode  none
attr source  rcvdPk
attr title  "packets received, count"
scalar scenarioPRJP1.node[98].app 	rcvdPk:sum(packetBytes) 	72192
attr interpolationmode  none
attr source  rcvdPk
attr title  "packets received, sum(packetBytes)"
statistic scenarioPRJP1.node[98].app 	endToEndDelay:histogram
field count 141
field mean 0.53921596952291
field stddev 1.8204346900023
field sum 76.029451702731
field sqrsum 504.95383899109
field min 0.000945025222
field max 17.912647519964
attr interpolationmode  none
attr source  messageAge(rcvdPk)
attr title  "delay, histogram"
attr unit  s
bin	-INF	0
bin	-8.9549062012705	0
bin	-7.760792702549	0
bin	-6.5666792038274	0
bin	-5.3725657051059	0
bin	-4.1784522063844	0
bin	-2.9843387076628	0
bin	-1.7902252089413	0
bin	-0.59611171021976	119
bin	0.59800178850177	9
bin	1.7921152872233	5
bin	2.9862287859448	4
bin	4.1803422846664	2
bin	5.3744557833879	1
bin	6.5685692821094	0
bin	7.762682780831	0
bin	8.9567962795525	0
bin	10.150909778274	0
bin	11.345023276996	0
bin	12.539136775717	0
bin	13.733250274439	0
bin	14.92736377316	0
bin	16.121477271882	0
bin	17.315590770603	1
bin	18.509704269325	0
bin	19.703817768046	0
bin	20.897931266768	0
bin	22.092044765489	0
bin	23.286158264211	0
bin	24.480271762932	0
bin	25.674385261654	0
bin	26.868498760376	0
scalar scenarioPRJP1.node[98].app 	sentPk:count 	2615
attr interpolationmode  none
attr source  sentPk
attr title  "packets sent, count"
scalar scenarioPRJP1.node[98].app 	sentPk:sum(packetBytes) 	1338880
attr interpolationmode  none
attr source  sentPk
attr title  "packets sent, sum(packetBytes)"
scalar scenarioPRJP1.node[98].udp 	droppedPkBadChecksum:count 	0
attr interpolationmode  none
attr title  "packets dropped (checksum error), count"
scalar scenarioPRJP1.node[98].udp 	droppedPkWrongPort:count 	0
attr interpolationmode  none
attr title  "packets dropped (wrong port), count"
scalar scenarioPRJP1.node[98].udp 	passedUpPk:count 	141
attr interpolationmode  none
attr title  "packets passed up, count"
scalar scenarioPRJP1.node[98].udp 	rcvdPk:count 	141
attr interpolationmode  none
attr source  rcvdPk
attr title  "packets received, count"
scalar scenarioPRJP1.node[98].udp 	rcvdPk:sum(packetBytes) 	73320
attr interpolationmode  none
attr source  rcvdPk
attr title  "packets received, sum(packetBytes)"
scalar scenarioPRJP1.node[98].udp 	sentPk:count 	2615
attr interpolationmode  none
attr source  sentPk
attr title  "packets sent, count"
scalar scenarioPRJP1.node[98].udp 	sentPk:sum(packetBytes) 	1359800
attr interpolationmode  none
attr source  sentPk
attr title  "packets sent, sum(packetBytes)"
scalar scenarioPRJP1.node[98].networkLayer.arp 	failedARPResolution:count 	284
attr title  "ARP failed resolutions, count"
scalar scenarioPRJP1.node[98].networkLayer.arp 	completedARPResolution:count 	3486
attr title  "ARP completed resolutions, count"
scalar scenarioPRJP1.node[98].networkLayer.arp 	initiatedARPResolution:count 	396
attr title  "ARP initiated resolutions, count"
scalar scenarioPRJP1.node[98].networkLayer.arp 	sentReply:count 	55
attr title  "ARP replies sent, count"
scalar scenarioPRJP1.node[98].networkLayer.arp 	sentReq:count 	1042
attr title  "ARP request sent, count"
scalar scenarioPRJP1.node[98].mobility 	startTime 	9.8
scalar scenarioPRJP1.node[98].mobility 	totalTime 	940.2
scalar scenarioPRJP1.node[98].mobility 	stopTime 	950
scalar scenarioPRJP1.node[98].mobility 	minSpeed 	2.4757274213825e-13
scalar scenarioPRJP1.node[98].mobility 	maxSpeed 	16.312995066709
scalar scenarioPRJP1.node[98].mobility 	totalDistance 	8789.8121469288
scalar scenarioPRJP1.node[98].mobility 	totalCO2Emission 	2279.8979546152
scalar scenarioPRJP1.node[98].wlan.mgmt 	dataQueueLen:max 	8
attr interpolationmode  sample-hold
attr title  "data queue length, max"
scalar scenarioPRJP1.node[98].wlan.mgmt 	dataQueueLen:timeavg 	0
attr interpolationmode  sample-hold
attr title  "data queue length, timeavg"
scalar scenarioPRJP1.node[98].wlan.mgmt 	dropPkByQueue:count 	0
attr interpolationmode  none
attr source  dropPkByQueue
attr title  "packets dropped by queue, count"
scalar scenarioPRJP1.node[98].wlan.mgmt 	dropPkByQueue:sum(packetBytes) 	0
attr interpolationmode  none
attr source  dropPkByQueue
attr title  "packets dropped by queue, sum(packetBytes)"
scalar scenarioPRJP1.node[98].wlan.mac 	"number of received packets" 	2854
scalar scenarioPRJP1.node[98].wlan.mac 	"number of collisions" 	118120
scalar scenarioPRJP1.node[98].wlan.mac 	"number of internal collisions" 	0
scalar scenarioPRJP1.node[98].wlan.mac 	"number of retry for AC 0" 	15579
scalar scenarioPRJP1.node[98].wlan.mac 	"number of retry for AC 1" 	0
scalar scenarioPRJP1.node[98].wlan.mac 	"number of retry for AC 2" 	0
scalar scenarioPRJP1.node[98].wlan.mac 	"number of retry for AC 3" 	0
scalar scenarioPRJP1.node[98].wlan.mac 	"sent and received bits" 	43643824
scalar scenarioPRJP1.node[98].wlan.mac 	"sent packet within AC 0" 	1473
scalar scenarioPRJP1.node[98].wlan.mac 	"sent packet within AC 1" 	1
scalar scenarioPRJP1.node[98].wlan.mac 	"sent packet within AC 2" 	0
scalar scenarioPRJP1.node[98].wlan.mac 	"sent packet within AC 3" 	0
scalar scenarioPRJP1.node[98].wlan.mac 	"sent in TXOP " 	0
scalar scenarioPRJP1.node[98].wlan.mac 	"sentWithoutRetry AC 0" 	954
scalar scenarioPRJP1.node[98].wlan.mac 	"sentWithoutRetry AC 1" 	1
scalar scenarioPRJP1.node[98].wlan.mac 	"sentWithoutRetry AC 2" 	0
scalar scenarioPRJP1.node[98].wlan.mac 	"sentWithoutRetry AC 3" 	0
scalar scenarioPRJP1.node[98].wlan.mac 	"numGivenUp AC 0" 	2374
scalar scenarioPRJP1.node[98].wlan.mac 	"numGivenUp AC 1" 	0
scalar scenarioPRJP1.node[98].wlan.mac 	"numGivenUp AC 2" 	0
scalar scenarioPRJP1.node[98].wlan.mac 	"numGivenUp AC 3" 	0
scalar scenarioPRJP1.node[98].wlan.mac 	"numDropped AC 0" 	0
scalar scenarioPRJP1.node[98].wlan.mac 	"numDropped AC 1" 	0
scalar scenarioPRJP1.node[98].wlan.mac 	"numDropped AC 2" 	0
scalar scenarioPRJP1.node[98].wlan.mac 	"numDropped AC 3" 	0
scalar scenarioPRJP1.node[98].wlan.mac 	rcvdPkFromLL:count 	232807
attr interpolationmode  none
attr source  packetReceivedFromLower
attr title  "packets received from lower layer, count"
scalar scenarioPRJP1.node[98].wlan.mac 	rcvdPkFromLL:sum(packetBytes) 	91868684
attr interpolationmode  none
attr source  packetReceivedFromLower
attr title  "packets received from lower layer, sum(packetBytes)"
scalar scenarioPRJP1.node[98].wlan.mac 	sentDownPk:count 	37918
attr interpolationmode  none
attr source  packetSentToLower
attr title  "packets sent to lower layer, count"
scalar scenarioPRJP1.node[98].wlan.mac 	sentDownPk:sum(packetBytes) 	15454682
attr interpolationmode  none
attr source  packetSentToLower
attr title  "packets sent to lower layer, sum(packetBytes)"
scalar scenarioPRJP1.node[98].wlan.mac 	rcvdPkFromHL:count 	19485
attr interpolationmode  none
attr source  packetReceivedFromUpper
attr title  "packets received from higher layer, count"
scalar scenarioPRJP1.node[98].wlan.mac 	rcvdPkFromHL:sum(packetBytes) 	6770616
attr interpolationmode  none
attr source  packetReceivedFromUpper
attr title  "packets received from higher layer, sum(packetBytes)"
scalar scenarioPRJP1.node[98].wlan.mac 	passedUpPk:count 	51791
attr interpolationmode  none
attr source  packetSentToUpper
attr title  "packets passed to higher layer, count"
scalar scenarioPRJP1.node[98].wlan.mac 	passedUpPk:sum(packetBytes) 	15211570
attr interpolationmode  none
attr source  packetSentToUpper
attr title  "packets passed to higher layer, sum(packetBytes)"
statistic scenarioPRJP1.node[98].wlan.radio 	radioChannel:histogram
field count 1
field mean 3
field stddev -nan
field sum 3
field sqrsum 9
field min 3
field max 3
attr interpolationmode  sample-hold
attr source  radioChannelChanged
attr title  "Radio channel, histogram"
bin	-INF	0
bin	2	0
bin	3	1
bin	4	0
scalar scenarioPRJP1.node[98].wlan.radio 	transmissionState:count 	151672
attr interpolationmode  sample-hold
attr source  transmissionStateChanged
attr title  "Radio transmission state, count"
scalar scenarioPRJP1.node[98].wlan.radio 	receptionState:count 	615646
attr interpolationmode  sample-hold
attr source  receptionStateChanged
attr title  "Radio reception state, count"
scalar scenarioPRJP1.node[98].wlan.radio 	radioMode:count 	75838
attr interpolationmode  sample-hold
attr source  radioModeChanged
attr title  "Radio mode, count"
statistic scenarioPRJP1.node[98].wlan.radio 	symbolErrorRate:histogram
field count 0
field mean -nan
field stddev -nan
field sum 0
field sqrsum 0
field min -nan
field max -nan
attr source  symbolErrorRate
attr title  "Symbol error rate, histogram"
bin	-INF	0
bin	-0.5	0
bin	-0.46666666666667	0
bin	-0.43333333333333	0
bin	-0.4	0
bin	-0.36666666666667	0
bin	-0.33333333333333	0
bin	-0.3	0
bin	-0.26666666666667	0
bin	-0.23333333333333	0
bin	-0.2	0
bin	-0.16666666666667	0
bin	-0.13333333333333	0
bin	-0.1	0
bin	-0.066666666666667	0
bin	-0.033333333333333	0
bin	0	0
bin	0.033333333333333	0
bin	0.066666666666667	0
bin	0.1	0
bin	0.13333333333333	0
bin	0.16666666666667	0
bin	0.2	0
bin	0.23333333333333	0
bin	0.26666666666667	0
bin	0.3	0
bin	0.33333333333333	0
bin	0.36666666666667	0
bin	0.4	0
bin	0.43333333333333	0
bin	0.46666666666667	0
bin	0.5	0
statistic scenarioPRJP1.node[98].wlan.radio 	bitErrorRate:histogram
field count 0
field mean -nan
field stddev -nan
field sum 0
field sqrsum 0
field min -nan
field max -nan
attr source  bitErrorRate
attr title  "Bit error rate, histogram"
bin	-INF	0
bin	-0.5	0
bin	-0.46666666666667	0
bin	-0.43333333333333	0
bin	-0.4	0
bin	-0.36666666666667	0
bin	-0.33333333333333	0
bin	-0.3	0
bin	-0.26666666666667	0
bin	-0.23333333333333	0
bin	-0.2	0
bin	-0.16666666666667	0
bin	-0.13333333333333	0
bin	-0.1	0
bin	-0.066666666666667	0
bin	-0.033333333333333	0
bin	0	0
bin	0.033333333333333	0
bin	0.066666666666667	0
bin	0.1	0
bin	0.13333333333333	0
bin	0.16666666666667	0
bin	0.2	0
bin	0.23333333333333	0
bin	0.26666666666667	0
bin	0.3	0
bin	0.33333333333333	0
bin	0.36666666666667	0
bin	0.4	0
bin	0.43333333333333	0
bin	0.46666666666667	0
bin	0.5	0
statistic scenarioPRJP1.node[98].wlan.radio 	packetErrorRate:histogram
field count 232807
field mean 0.4752453487753
field stddev 0.4893739785046
field sum 110640.44391233
field sqrsum 108335.34146407
field min 0
field max 1
attr source  packetErrorRate
attr title  "Packet error rate, histogram"
bin	-INF	0
bin	-0.5	0
bin	-0.43333333333333	0
bin	-0.36666666666667	0
bin	-0.3	0
bin	-0.23333333333333	0
bin	-0.16666666666667	0
bin	-0.1	0
bin	-0.033333333333333	112963
bin	0.033333333333333	3598
bin	0.1	1801
bin	0.16666666666667	1257
bin	0.23333333333333	1003
bin	0.3	790
bin	0.36666666666667	729
bin	0.43333333333333	637
bin	0.5	661
bin	0.56666666666667	608
bin	0.63333333333333	681
bin	0.7	650
bin	0.76666666666667	680
bin	0.83333333333333	838
bin	0.9	1323
bin	0.96666666666667	104588
bin	1.0333333333333	0
bin	1.1	0
bin	1.1666666666667	0
bin	1.2333333333333	0
bin	1.3	0
bin	1.3666666666667	0
bin	1.4333333333333	0
bin	1.5	0
statistic scenarioPRJP1.node[98].wlan.radio 	minSNIR:histogram
field count 232807
field mean 417.3582884628
field stddev 9450.2600152699
field sum 97163931.062158
field sqrsum 20831854078580
field min 0.00011273759163834
field max 1505321.2761233
attr source  minSNIR
attr title  "Min SNIR, histogram"
bin	-INF	0
bin	-15681.835371475	0
bin	-13590.922114823	0
bin	-11500.008858172	0
bin	-9409.0956015204	0
bin	-7318.1823448688	0
bin	-5227.2690882173	0
bin	-3136.3558315657	0
bin	-1045.4425749142	226581
bin	1045.4706817374	3627
bin	3136.3839383889	869
bin	5227.2971950405	427
bin	7318.210451692	240
bin	9409.1237083436	160
bin	11500.036964995	97
bin	13590.950221647	75
bin	15681.863478298	67
bin	17772.77673495	61
bin	19863.689991601	40
bin	21954.603248253	28
bin	24045.516504904	31
bin	26136.429761556	23
bin	28227.343018208	19
bin	30318.256274859	21
bin	32409.169531511	28
bin	34500.082788162	19
bin	36590.996044814	9
bin	38681.909301465	21
bin	40772.822558117	16
bin	42863.735814768	19
bin	44954.64907142	6
bin	47045.562328071	323
scalar scenarioPRJP1.node[98].lo0.lo 	droppedPkBitError:count 	0
attr interpolationmode  none
attr source  dropPkBitError
attr title  "packets dropped/bit error, count"
scalar scenarioPRJP1.node[98].lo0.lo 	droppedPkBitError:sum(packetBytes) 	0
attr interpolationmode  none
attr source  dropPkBitError
attr title  "packets dropped/bit error, sum(packetBytes)"
scalar scenarioPRJP1.node[98].lo0.lo 	rcvdPkFromHL:count 	0
attr interpolationmode  none
attr source  packetReceivedFromUpper
attr title  "packets received from higher layer, count"
scalar scenarioPRJP1.node[98].lo0.lo 	rcvdPkFromHL:sum(packetBytes) 	0
attr interpolationmode  none
attr source  packetReceivedFromUpper
attr title  "packets received from higher layer, sum(packetBytes)"
scalar scenarioPRJP1.node[98].lo0.lo 	passedUpPk:count 	0
attr interpolationmode  none
attr source  packetSentToUpper
attr title  "packets passed to higher layer, count"
scalar scenarioPRJP1.node[98].lo0.lo 	passedUpPk:sum(packetBytes) 	0
attr interpolationmode  none
attr source  packetSentToUpper
attr title  "packets passed to higher layer, sum(packetBytes)"
