version 2
run DYMOUM-LNS-100n-9-20150806-19:55:33-19713
attr configname DYMOUM-LNS-100n
attr datetime 20150806-19:55:33
attr experiment DYMOUM-LNS-100n
attr inifile omnetpp.ini
attr iterationvars ""
attr iterationvars2 $repetition=9
attr measurement ""
attr network Prj_Part1_propag.scenarioPRJP1
attr processid 19713
attr repetition 9
attr replication #9
attr resultdir results
attr runnumber 9
attr seedset 9

scalar scenarioPRJP1.node[63].app 	"Total sent" 	194
scalar scenarioPRJP1.node[63].app 	"Total received" 	16
scalar scenarioPRJP1.node[63].app 	"Total deleted" 	0
scalar scenarioPRJP1.node[63].app 	dropPk:count 	0
attr interpolationmode  none
attr source  dropPk
attr title  "packets dropped, count"
scalar scenarioPRJP1.node[63].app 	dropPk:sum(packetBytes) 	0
attr interpolationmode  none
attr source  dropPk
attr title  "packets dropped, sum(packetBytes)"
scalar scenarioPRJP1.node[63].app 	outOfOrderPk:count 	0
attr interpolationmode  none
attr source  outOfOrderPk
attr title  "packets received out of order, count"
scalar scenarioPRJP1.node[63].app 	outOfOrderPk:sum(packetBytes) 	0
attr interpolationmode  none
attr source  outOfOrderPk
attr title  "packets received out of order, sum(packetBytes)"
scalar scenarioPRJP1.node[63].app 	rcvdPk:count 	16
attr interpolationmode  none
attr source  rcvdPk
attr title  "packets received, count"
scalar scenarioPRJP1.node[63].app 	rcvdPk:sum(packetBytes) 	8192
attr interpolationmode  none
attr source  rcvdPk
attr title  "packets received, sum(packetBytes)"
statistic scenarioPRJP1.node[63].app 	endToEndDelay:histogram
field count 16
field mean 0.367475465965
field stddev 0.51077300926589
field sum 5.87960745544
field sqrsum 6.073947494297
field min 0.001113100965
field max 1.668283220456
attr interpolationmode  none
attr source  messageAge(rcvdPk)
attr title  "delay, histogram"
attr unit  s
bin	-INF	0
bin	-0.8324719587805	0
bin	-0.72132728414777	0
bin	-0.61018260951503	0
bin	-0.4990379348823	0
bin	-0.38789326024957	0
bin	-0.27674858561683	0
bin	-0.1656039109841	0
bin	-0.054459236351367	8
bin	0.056685438281367	1
bin	0.1678301129141	0
bin	0.27897478754683	0
bin	0.39011946217957	3
bin	0.5012641368123	0
bin	0.61240881144503	1
bin	0.72355348607777	0
bin	0.8346981607105	1
bin	0.94584283534323	0
bin	1.056987509976	0
bin	1.1681321846087	1
bin	1.2792768592414	0
bin	1.3904215338742	0
bin	1.5015662085069	0
bin	1.6127108831396	1
bin	1.7238555577724	0
bin	1.8350002324051	0
bin	1.9461449070378	0
bin	2.0572895816706	0
bin	2.1684342563033	0
bin	2.279578930936	0
bin	2.3907236055688	0
bin	2.5018682802015	0
scalar scenarioPRJP1.node[63].app 	sentPk:count 	194
attr interpolationmode  none
attr source  sentPk
attr title  "packets sent, count"
scalar scenarioPRJP1.node[63].app 	sentPk:sum(packetBytes) 	99328
attr interpolationmode  none
attr source  sentPk
attr title  "packets sent, sum(packetBytes)"
scalar scenarioPRJP1.node[63].udp 	droppedPkBadChecksum:count 	0
attr interpolationmode  none
attr title  "packets dropped (checksum error), count"
scalar scenarioPRJP1.node[63].udp 	droppedPkWrongPort:count 	0
attr interpolationmode  none
attr title  "packets dropped (wrong port), count"
scalar scenarioPRJP1.node[63].udp 	passedUpPk:count 	16
attr interpolationmode  none
attr title  "packets passed up, count"
scalar scenarioPRJP1.node[63].udp 	rcvdPk:count 	16
attr interpolationmode  none
attr source  rcvdPk
attr title  "packets received, count"
scalar scenarioPRJP1.node[63].udp 	rcvdPk:sum(packetBytes) 	8320
attr interpolationmode  none
attr source  rcvdPk
attr title  "packets received, sum(packetBytes)"
scalar scenarioPRJP1.node[63].udp 	sentPk:count 	194
attr interpolationmode  none
attr source  sentPk
attr title  "packets sent, count"
scalar scenarioPRJP1.node[63].udp 	sentPk:sum(packetBytes) 	100880
attr interpolationmode  none
attr source  sentPk
attr title  "packets sent, sum(packetBytes)"
scalar scenarioPRJP1.node[63].networkLayer.arp 	failedARPResolution:count 	17
attr title  "ARP failed resolutions, count"
scalar scenarioPRJP1.node[63].networkLayer.arp 	completedARPResolution:count 	526
attr title  "ARP completed resolutions, count"
scalar scenarioPRJP1.node[63].networkLayer.arp 	initiatedARPResolution:count 	35
attr title  "ARP initiated resolutions, count"
scalar scenarioPRJP1.node[63].networkLayer.arp 	sentReply:count 	9
attr title  "ARP replies sent, count"
scalar scenarioPRJP1.node[63].networkLayer.arp 	sentReq:count 	85
attr title  "ARP request sent, count"
scalar scenarioPRJP1.node[63].manetrouting 	"simulated time" 	98.1
scalar scenarioPRJP1.node[63].manetrouting 	"Dymo totalSend " 	253158
scalar scenarioPRJP1.node[63].manetrouting 	"Dymo Rreq send" 	133044
scalar scenarioPRJP1.node[63].manetrouting 	"Dymo Rreq rec" 	120545
scalar scenarioPRJP1.node[63].manetrouting 	"Dymo Rrep send" 	1406
scalar scenarioPRJP1.node[63].manetrouting 	"Dymo Rrep rec" 	677
scalar scenarioPRJP1.node[63].manetrouting 	"Dymo Rerr send" 	902
scalar scenarioPRJP1.node[63].manetrouting 	"Dymo Rerr rec" 	4481
scalar scenarioPRJP1.node[63].mobility 	startTime 	7.3
scalar scenarioPRJP1.node[63].mobility 	totalTime 	90.7
scalar scenarioPRJP1.node[63].mobility 	stopTime 	98.1
scalar scenarioPRJP1.node[63].mobility 	minSpeed 	0.26915588072082
scalar scenarioPRJP1.node[63].mobility 	maxSpeed 	21.228191812016
scalar scenarioPRJP1.node[63].mobility 	totalDistance 	1481.2694820694
scalar scenarioPRJP1.node[63].mobility 	totalCO2Emission 	403.92117076182
scalar scenarioPRJP1.node[63].wlan.mgmt 	dataQueueLen:max 	3
attr interpolationmode  sample-hold
attr title  "data queue length, max"
scalar scenarioPRJP1.node[63].wlan.mgmt 	dataQueueLen:timeavg 	0
attr interpolationmode  sample-hold
attr title  "data queue length, timeavg"
scalar scenarioPRJP1.node[63].wlan.mgmt 	dropPkByQueue:count 	0
attr interpolationmode  none
attr source  dropPkByQueue
attr title  "packets dropped by queue, count"
scalar scenarioPRJP1.node[63].wlan.mgmt 	dropPkByQueue:sum(packetBytes) 	0
attr interpolationmode  none
attr source  dropPkByQueue
attr title  "packets dropped by queue, sum(packetBytes)"
scalar scenarioPRJP1.node[63].wlan.mac 	"number of received packets" 	214
scalar scenarioPRJP1.node[63].wlan.mac 	"number of collisions" 	8247
scalar scenarioPRJP1.node[63].wlan.mac 	"number of internal collisions" 	0
scalar scenarioPRJP1.node[63].wlan.mac 	"number of retry for AC 0" 	1147
scalar scenarioPRJP1.node[63].wlan.mac 	"number of retry for AC 1" 	0
scalar scenarioPRJP1.node[63].wlan.mac 	"number of retry for AC 2" 	0
scalar scenarioPRJP1.node[63].wlan.mac 	"number of retry for AC 3" 	0
scalar scenarioPRJP1.node[63].wlan.mac 	"sent and received bits" 	3658856
scalar scenarioPRJP1.node[63].wlan.mac 	"sent packet within AC 0" 	143
scalar scenarioPRJP1.node[63].wlan.mac 	"sent packet within AC 1" 	0
scalar scenarioPRJP1.node[63].wlan.mac 	"sent packet within AC 2" 	0
scalar scenarioPRJP1.node[63].wlan.mac 	"sent packet within AC 3" 	0
scalar scenarioPRJP1.node[63].wlan.mac 	"sent in TXOP " 	0
scalar scenarioPRJP1.node[63].wlan.mac 	"sentWithoutRetry AC 0" 	72
scalar scenarioPRJP1.node[63].wlan.mac 	"sentWithoutRetry AC 1" 	0
scalar scenarioPRJP1.node[63].wlan.mac 	"sentWithoutRetry AC 2" 	0
scalar scenarioPRJP1.node[63].wlan.mac 	"sentWithoutRetry AC 3" 	0
scalar scenarioPRJP1.node[63].wlan.mac 	"numGivenUp AC 0" 	164
scalar scenarioPRJP1.node[63].wlan.mac 	"numGivenUp AC 1" 	0
scalar scenarioPRJP1.node[63].wlan.mac 	"numGivenUp AC 2" 	0
scalar scenarioPRJP1.node[63].wlan.mac 	"numGivenUp AC 3" 	0
scalar scenarioPRJP1.node[63].wlan.mac 	"numDropped AC 0" 	0
scalar scenarioPRJP1.node[63].wlan.mac 	"numDropped AC 1" 	0
scalar scenarioPRJP1.node[63].wlan.mac 	"numDropped AC 2" 	0
scalar scenarioPRJP1.node[63].wlan.mac 	"numDropped AC 3" 	0
scalar scenarioPRJP1.node[63].wlan.mac 	rcvdPkFromLL:count 	19147
attr interpolationmode  none
attr source  packetReceivedFromLower
attr title  "packets received from lower layer, count"
scalar scenarioPRJP1.node[63].wlan.mac 	rcvdPkFromLL:sum(packetBytes) 	7285802
attr interpolationmode  none
attr source  packetReceivedFromLower
attr title  "packets received from lower layer, sum(packetBytes)"
scalar scenarioPRJP1.node[63].wlan.mac 	sentDownPk:count 	2888
attr interpolationmode  none
attr source  packetSentToLower
attr title  "packets sent to lower layer, count"
scalar scenarioPRJP1.node[63].wlan.mac 	sentDownPk:sum(packetBytes) 	1161154
attr interpolationmode  none
attr source  packetSentToLower
attr title  "packets sent to lower layer, sum(packetBytes)"
scalar scenarioPRJP1.node[63].wlan.mac 	rcvdPkFromHL:count 	1527
attr interpolationmode  none
attr source  packetReceivedFromUpper
attr title  "packets received from higher layer, count"
scalar scenarioPRJP1.node[63].wlan.mac 	rcvdPkFromHL:sum(packetBytes) 	544418
attr interpolationmode  none
attr source  packetReceivedFromUpper
attr title  "packets received from higher layer, sum(packetBytes)"
scalar scenarioPRJP1.node[63].wlan.mac 	passedUpPk:count 	5217
attr interpolationmode  none
attr source  packetSentToUpper
attr title  "packets passed to higher layer, count"
scalar scenarioPRJP1.node[63].wlan.mac 	passedUpPk:sum(packetBytes) 	1537577
attr interpolationmode  none
attr source  packetSentToUpper
attr title  "packets passed to higher layer, sum(packetBytes)"
statistic scenarioPRJP1.node[63].wlan.radio 	radioChannel:histogram
field count 1
field mean 3
field stddev -nan
field sum 3
field sqrsum 9
field min 3
field max 3
attr interpolationmode  sample-hold
attr source  radioChannelChanged
attr title  "Radio channel, histogram"
bin	-INF	0
bin	2	0
bin	3	1
bin	4	0
scalar scenarioPRJP1.node[63].wlan.radio 	transmissionState:count 	11552
attr interpolationmode  sample-hold
attr source  transmissionStateChanged
attr title  "Radio transmission state, count"
scalar scenarioPRJP1.node[63].wlan.radio 	receptionState:count 	47821
attr interpolationmode  sample-hold
attr source  receptionStateChanged
attr title  "Radio reception state, count"
scalar scenarioPRJP1.node[63].wlan.radio 	radioMode:count 	5778
attr interpolationmode  sample-hold
attr source  radioModeChanged
attr title  "Radio mode, count"
statistic scenarioPRJP1.node[63].wlan.radio 	symbolErrorRate:histogram
field count 0
field mean -nan
field stddev -nan
field sum 0
field sqrsum 0
field min -nan
field max -nan
attr source  symbolErrorRate
attr title  "Symbol error rate, histogram"
bin	-INF	0
bin	-0.5	0
bin	-0.46666666666667	0
bin	-0.43333333333333	0
bin	-0.4	0
bin	-0.36666666666667	0
bin	-0.33333333333333	0
bin	-0.3	0
bin	-0.26666666666667	0
bin	-0.23333333333333	0
bin	-0.2	0
bin	-0.16666666666667	0
bin	-0.13333333333333	0
bin	-0.1	0
bin	-0.066666666666667	0
bin	-0.033333333333333	0
bin	0	0
bin	0.033333333333333	0
bin	0.066666666666667	0
bin	0.1	0
bin	0.13333333333333	0
bin	0.16666666666667	0
bin	0.2	0
bin	0.23333333333333	0
bin	0.26666666666667	0
bin	0.3	0
bin	0.33333333333333	0
bin	0.36666666666667	0
bin	0.4	0
bin	0.43333333333333	0
bin	0.46666666666667	0
bin	0.5	0
statistic scenarioPRJP1.node[63].wlan.radio 	bitErrorRate:histogram
field count 0
field mean -nan
field stddev -nan
field sum 0
field sqrsum 0
field min -nan
field max -nan
attr source  bitErrorRate
attr title  "Bit error rate, histogram"
bin	-INF	0
bin	-0.5	0
bin	-0.46666666666667	0
bin	-0.43333333333333	0
bin	-0.4	0
bin	-0.36666666666667	0
bin	-0.33333333333333	0
bin	-0.3	0
bin	-0.26666666666667	0
bin	-0.23333333333333	0
bin	-0.2	0
bin	-0.16666666666667	0
bin	-0.13333333333333	0
bin	-0.1	0
bin	-0.066666666666667	0
bin	-0.033333333333333	0
bin	0	0
bin	0.033333333333333	0
bin	0.066666666666667	0
bin	0.1	0
bin	0.13333333333333	0
bin	0.16666666666667	0
bin	0.2	0
bin	0.23333333333333	0
bin	0.26666666666667	0
bin	0.3	0
bin	0.33333333333333	0
bin	0.36666666666667	0
bin	0.4	0
bin	0.43333333333333	0
bin	0.46666666666667	0
bin	0.5	0
statistic scenarioPRJP1.node[63].wlan.radio 	packetErrorRate:histogram
field count 19147
field mean 0.39563734895901
field stddev 0.47870992501709
field sum 7575.2683205181
field sqrsum 7384.6175559476
field min 0
field max 1
attr source  packetErrorRate
attr title  "Packet error rate, histogram"
bin	-INF	0
bin	-0.5	0
bin	-0.43333333333333	0
bin	-0.36666666666667	0
bin	-0.3	0
bin	-0.23333333333333	0
bin	-0.16666666666667	0
bin	-0.1	0
bin	-0.033333333333333	10785
bin	0.033333333333333	310
bin	0.1	153
bin	0.16666666666667	128
bin	0.23333333333333	78
bin	0.3	64
bin	0.36666666666667	73
bin	0.43333333333333	48
bin	0.5	41
bin	0.56666666666667	51
bin	0.63333333333333	38
bin	0.7	59
bin	0.76666666666667	54
bin	0.83333333333333	72
bin	0.9	123
bin	0.96666666666667	7070
bin	1.0333333333333	0
bin	1.1	0
bin	1.1666666666667	0
bin	1.2333333333333	0
bin	1.3	0
bin	1.3666666666667	0
bin	1.4333333333333	0
bin	1.5	0
statistic scenarioPRJP1.node[63].wlan.radio 	minSNIR:histogram
field count 19147
field mean 227.66541444103
field stddev 4050.1124848711
field sum 4359109.6903024
field sqrsum 315052128202.76
field min 0.0012619793309745
field max 264073.10168691
attr source  minSNIR
attr title  "Min SNIR, histogram"
bin	-INF	0
bin	-14360.302274007	0
bin	-12445.595025011	0
bin	-10530.887776016	0
bin	-8616.1805270205	0
bin	-6701.4732780251	0
bin	-4786.7660290296	0
bin	-2872.0587800342	0
bin	-957.35153103875	18793
bin	957.35571795669	203
bin	2872.0629669521	44
bin	4786.7702159476	19
bin	6701.477464943	16
bin	8616.1847139385	11
bin	10530.891962934	7
bin	12445.599211929	4
bin	14360.306460925	3
bin	16275.01370992	5
bin	18189.720958916	0
bin	20104.428207911	3
bin	22019.135456907	4
bin	23933.842705902	3
bin	25848.549954898	2
bin	27763.257203893	4
bin	29677.964452888	1
bin	31592.671701884	3
bin	33507.378950879	2
bin	35422.086199875	1
bin	37336.79344887	2
bin	39251.500697866	0
bin	41166.207946861	2
bin	43080.915195857	15
scalar scenarioPRJP1.node[63].lo0.lo 	droppedPkBitError:count 	0
attr interpolationmode  none
attr source  dropPkBitError
attr title  "packets dropped/bit error, count"
scalar scenarioPRJP1.node[63].lo0.lo 	droppedPkBitError:sum(packetBytes) 	0
attr interpolationmode  none
attr source  dropPkBitError
attr title  "packets dropped/bit error, sum(packetBytes)"
scalar scenarioPRJP1.node[63].lo0.lo 	rcvdPkFromHL:count 	0
attr interpolationmode  none
attr source  packetReceivedFromUpper
attr title  "packets received from higher layer, count"
scalar scenarioPRJP1.node[63].lo0.lo 	rcvdPkFromHL:sum(packetBytes) 	0
attr interpolationmode  none
attr source  packetReceivedFromUpper
attr title  "packets received from higher layer, sum(packetBytes)"
scalar scenarioPRJP1.node[63].lo0.lo 	passedUpPk:count 	0
attr interpolationmode  none
attr source  packetSentToUpper
attr title  "packets passed to higher layer, count"
scalar scenarioPRJP1.node[63].lo0.lo 	passedUpPk:sum(packetBytes) 	0
attr interpolationmode  none
attr source  packetSentToUpper
attr title  "packets passed to higher layer, sum(packetBytes)"
scalar scenarioPRJP1.node[99].app 	"Total sent" 	365
scalar scenarioPRJP1.node[99].app 	"Total received" 	20
scalar scenarioPRJP1.node[99].app 	"Total deleted" 	0
scalar scenarioPRJP1.node[99].app 	dropPk:count 	0
attr interpolationmode  none
attr source  dropPk
attr title  "packets dropped, count"
scalar scenarioPRJP1.node[99].app 	dropPk:sum(packetBytes) 	0
attr interpolationmode  none
attr source  dropPk
attr title  "packets dropped, sum(packetBytes)"
scalar scenarioPRJP1.node[99].app 	outOfOrderPk:count 	0
attr interpolationmode  none
attr source  outOfOrderPk
attr title  "packets received out of order, count"
scalar scenarioPRJP1.node[99].app 	outOfOrderPk:sum(packetBytes) 	0
attr interpolationmode  none
attr source  outOfOrderPk
attr title  "packets received out of order, sum(packetBytes)"
scalar scenarioPRJP1.node[99].app 	rcvdPk:count 	20
attr interpolationmode  none
attr source  rcvdPk
attr title  "packets received, count"
scalar scenarioPRJP1.node[99].app 	rcvdPk:sum(packetBytes) 	10240
attr interpolationmode  none
attr source  rcvdPk
attr title  "packets received, sum(packetBytes)"
statistic scenarioPRJP1.node[99].app 	endToEndDelay:histogram
field count 20
field mean 0.71546999131895
field stddev 1.0593086769541
field sum 14.309399826379
field sqrsum 31.558508757894
field min 0.000958286613
field max 4.223982606728
attr interpolationmode  none
attr source  messageAge(rcvdPk)
attr title  "delay, histogram"
attr unit  s
bin	-INF	0
bin	-2.1105538734445	0
bin	-1.8290189187702	0
bin	-1.5474839640958	0
bin	-1.2659490094215	0
bin	-0.98441405474717	0
bin	-0.70287910007283	0
bin	-0.4213441453985	0
bin	-0.13980919072417	10
bin	0.14172576395017	0
bin	0.4232607186245	5
bin	0.70479567329883	0
bin	0.98633062797317	1
bin	1.2678655826475	0
bin	1.5494005373218	1
bin	1.8309354919962	2
bin	2.1124704466705	0
bin	2.3940054013448	0
bin	2.6755403560192	0
bin	2.9570753106935	0
bin	3.2386102653678	0
bin	3.5201452200422	0
bin	3.8016801747165	0
bin	4.0832151293908	1
bin	4.3647500840652	0
bin	4.6462850387395	0
bin	4.9278199934138	0
bin	5.2093549480882	0
bin	5.4908899027625	0
bin	5.7724248574368	0
bin	6.0539598121112	0
bin	6.3354947667855	0
scalar scenarioPRJP1.node[99].app 	sentPk:count 	365
attr interpolationmode  none
attr source  sentPk
attr title  "packets sent, count"
scalar scenarioPRJP1.node[99].app 	sentPk:sum(packetBytes) 	186880
attr interpolationmode  none
attr source  sentPk
attr title  "packets sent, sum(packetBytes)"
scalar scenarioPRJP1.node[99].udp 	droppedPkBadChecksum:count 	0
attr interpolationmode  none
attr title  "packets dropped (checksum error), count"
scalar scenarioPRJP1.node[99].udp 	droppedPkWrongPort:count 	0
attr interpolationmode  none
attr title  "packets dropped (wrong port), count"
scalar scenarioPRJP1.node[99].udp 	passedUpPk:count 	20
attr interpolationmode  none
attr title  "packets passed up, count"
scalar scenarioPRJP1.node[99].udp 	rcvdPk:count 	20
attr interpolationmode  none
attr source  rcvdPk
attr title  "packets received, count"
scalar scenarioPRJP1.node[99].udp 	rcvdPk:sum(packetBytes) 	10400
attr interpolationmode  none
attr source  rcvdPk
attr title  "packets received, sum(packetBytes)"
scalar scenarioPRJP1.node[99].udp 	sentPk:count 	365
attr interpolationmode  none
attr source  sentPk
attr title  "packets sent, count"
scalar scenarioPRJP1.node[99].udp 	sentPk:sum(packetBytes) 	189800
attr interpolationmode  none
attr source  sentPk
attr title  "packets sent, sum(packetBytes)"
scalar scenarioPRJP1.node[99].networkLayer.arp 	failedARPResolution:count 	38
attr title  "ARP failed resolutions, count"
scalar scenarioPRJP1.node[99].networkLayer.arp 	completedARPResolution:count 	730
attr title  "ARP completed resolutions, count"
scalar scenarioPRJP1.node[99].networkLayer.arp 	initiatedARPResolution:count 	66
attr title  "ARP initiated resolutions, count"
scalar scenarioPRJP1.node[99].networkLayer.arp 	sentReply:count 	10
attr title  "ARP replies sent, count"
scalar scenarioPRJP1.node[99].networkLayer.arp 	sentReq:count 	165
attr title  "ARP request sent, count"
scalar scenarioPRJP1.node[99].mobility 	startTime 	9.9
scalar scenarioPRJP1.node[99].mobility 	totalTime 	149.1
scalar scenarioPRJP1.node[99].mobility 	stopTime 	159.1
scalar scenarioPRJP1.node[99].mobility 	minSpeed 	2.4758626743077e-13
scalar scenarioPRJP1.node[99].mobility 	maxSpeed 	19.036931346541
scalar scenarioPRJP1.node[99].mobility 	totalDistance 	1483.3435608295
scalar scenarioPRJP1.node[99].mobility 	totalCO2Emission 	463.28393456654
scalar scenarioPRJP1.node[99].wlan.mgmt 	dataQueueLen:max 	5
attr interpolationmode  sample-hold
attr title  "data queue length, max"
scalar scenarioPRJP1.node[99].wlan.mgmt 	dataQueueLen:timeavg 	0
attr interpolationmode  sample-hold
attr title  "data queue length, timeavg"
scalar scenarioPRJP1.node[99].wlan.mgmt 	dropPkByQueue:count 	0
attr interpolationmode  none
attr source  dropPkByQueue
attr title  "packets dropped by queue, count"
scalar scenarioPRJP1.node[99].wlan.mgmt 	dropPkByQueue:sum(packetBytes) 	0
attr interpolationmode  none
attr source  dropPkByQueue
attr title  "packets dropped by queue, sum(packetBytes)"
scalar scenarioPRJP1.node[99].wlan.mac 	"number of received packets" 	297
scalar scenarioPRJP1.node[99].wlan.mac 	"number of collisions" 	15977
scalar scenarioPRJP1.node[99].wlan.mac 	"number of internal collisions" 	0
scalar scenarioPRJP1.node[99].wlan.mac 	"number of retry for AC 0" 	1913
scalar scenarioPRJP1.node[99].wlan.mac 	"number of retry for AC 1" 	0
scalar scenarioPRJP1.node[99].wlan.mac 	"number of retry for AC 2" 	0
scalar scenarioPRJP1.node[99].wlan.mac 	"number of retry for AC 3" 	0
scalar scenarioPRJP1.node[99].wlan.mac 	"sent and received bits" 	6437440
scalar scenarioPRJP1.node[99].wlan.mac 	"sent packet within AC 0" 	205
scalar scenarioPRJP1.node[99].wlan.mac 	"sent packet within AC 1" 	0
scalar scenarioPRJP1.node[99].wlan.mac 	"sent packet within AC 2" 	0
scalar scenarioPRJP1.node[99].wlan.mac 	"sent packet within AC 3" 	0
scalar scenarioPRJP1.node[99].wlan.mac 	"sent in TXOP " 	0
scalar scenarioPRJP1.node[99].wlan.mac 	"sentWithoutRetry AC 0" 	118
scalar scenarioPRJP1.node[99].wlan.mac 	"sentWithoutRetry AC 1" 	0
scalar scenarioPRJP1.node[99].wlan.mac 	"sentWithoutRetry AC 2" 	0
scalar scenarioPRJP1.node[99].wlan.mac 	"sentWithoutRetry AC 3" 	0
scalar scenarioPRJP1.node[99].wlan.mac 	"numGivenUp AC 0" 	282
scalar scenarioPRJP1.node[99].wlan.mac 	"numGivenUp AC 1" 	0
scalar scenarioPRJP1.node[99].wlan.mac 	"numGivenUp AC 2" 	0
scalar scenarioPRJP1.node[99].wlan.mac 	"numGivenUp AC 3" 	0
scalar scenarioPRJP1.node[99].wlan.mac 	"numDropped AC 0" 	0
scalar scenarioPRJP1.node[99].wlan.mac 	"numDropped AC 1" 	0
scalar scenarioPRJP1.node[99].wlan.mac 	"numDropped AC 2" 	0
scalar scenarioPRJP1.node[99].wlan.mac 	"numDropped AC 3" 	0
scalar scenarioPRJP1.node[99].wlan.mac 	rcvdPkFromLL:count 	30552
attr interpolationmode  none
attr source  packetReceivedFromLower
attr title  "packets received from lower layer, count"
scalar scenarioPRJP1.node[99].wlan.mac 	rcvdPkFromLL:sum(packetBytes) 	11958031
attr interpolationmode  none
attr source  packetReceivedFromLower
attr title  "packets received from lower layer, sum(packetBytes)"
scalar scenarioPRJP1.node[99].wlan.mac 	sentDownPk:count 	4851
attr interpolationmode  none
attr source  packetSentToLower
attr title  "packets sent to lower layer, count"
scalar scenarioPRJP1.node[99].wlan.mac 	sentDownPk:sum(packetBytes) 	1986454
attr interpolationmode  none
attr source  packetSentToLower
attr title  "packets sent to lower layer, sum(packetBytes)"
scalar scenarioPRJP1.node[99].wlan.mac 	rcvdPkFromHL:count 	2641
attr interpolationmode  none
attr source  packetReceivedFromUpper
attr title  "packets received from higher layer, count"
scalar scenarioPRJP1.node[99].wlan.mac 	rcvdPkFromHL:sum(packetBytes) 	955368
attr interpolationmode  none
attr source  packetReceivedFromUpper
attr title  "packets received from higher layer, sum(packetBytes)"
scalar scenarioPRJP1.node[99].wlan.mac 	passedUpPk:count 	6812
attr interpolationmode  none
attr source  packetSentToUpper
attr title  "packets passed to higher layer, count"
scalar scenarioPRJP1.node[99].wlan.mac 	passedUpPk:sum(packetBytes) 	2143629
attr interpolationmode  none
attr source  packetSentToUpper
attr title  "packets passed to higher layer, sum(packetBytes)"
statistic scenarioPRJP1.node[99].wlan.radio 	radioChannel:histogram
field count 1
field mean 3
field stddev -nan
field sum 3
field sqrsum 9
field min 3
field max 3
attr interpolationmode  sample-hold
attr source  radioChannelChanged
attr title  "Radio channel, histogram"
bin	-INF	0
bin	2	0
bin	3	1
bin	4	0
scalar scenarioPRJP1.node[99].wlan.radio 	transmissionState:count 	19404
attr interpolationmode  sample-hold
attr source  transmissionStateChanged
attr title  "Radio transmission state, count"
scalar scenarioPRJP1.node[99].wlan.radio 	receptionState:count 	79960
attr interpolationmode  sample-hold
attr source  receptionStateChanged
attr title  "Radio reception state, count"
scalar scenarioPRJP1.node[99].wlan.radio 	radioMode:count 	9704
attr interpolationmode  sample-hold
attr source  radioModeChanged
attr title  "Radio mode, count"
statistic scenarioPRJP1.node[99].wlan.radio 	symbolErrorRate:histogram
field count 0
field mean -nan
field stddev -nan
field sum 0
field sqrsum 0
field min -nan
field max -nan
attr source  symbolErrorRate
attr title  "Symbol error rate, histogram"
bin	-INF	0
bin	-0.5	0
bin	-0.46666666666667	0
bin	-0.43333333333333	0
bin	-0.4	0
bin	-0.36666666666667	0
bin	-0.33333333333333	0
bin	-0.3	0
bin	-0.26666666666667	0
bin	-0.23333333333333	0
bin	-0.2	0
bin	-0.16666666666667	0
bin	-0.13333333333333	0
bin	-0.1	0
bin	-0.066666666666667	0
bin	-0.033333333333333	0
bin	0	0
bin	0.033333333333333	0
bin	0.066666666666667	0
bin	0.1	0
bin	0.13333333333333	0
bin	0.16666666666667	0
bin	0.2	0
bin	0.23333333333333	0
bin	0.26666666666667	0
bin	0.3	0
bin	0.33333333333333	0
bin	0.36666666666667	0
bin	0.4	0
bin	0.43333333333333	0
bin	0.46666666666667	0
bin	0.5	0
statistic scenarioPRJP1.node[99].wlan.radio 	bitErrorRate:histogram
field count 0
field mean -nan
field stddev -nan
field sum 0
field sqrsum 0
field min -nan
field max -nan
attr source  bitErrorRate
attr title  "Bit error rate, histogram"
bin	-INF	0
bin	-0.5	0
bin	-0.46666666666667	0
bin	-0.43333333333333	0
bin	-0.4	0
bin	-0.36666666666667	0
bin	-0.33333333333333	0
bin	-0.3	0
bin	-0.26666666666667	0
bin	-0.23333333333333	0
bin	-0.2	0
bin	-0.16666666666667	0
bin	-0.13333333333333	0
bin	-0.1	0
bin	-0.066666666666667	0
bin	-0.033333333333333	0
bin	0	0
bin	0.033333333333333	0
bin	0.066666666666667	0
bin	0.1	0
bin	0.13333333333333	0
bin	0.16666666666667	0
bin	0.2	0
bin	0.23333333333333	0
bin	0.26666666666667	0
bin	0.3	0
bin	0.33333333333333	0
bin	0.36666666666667	0
bin	0.4	0
bin	0.43333333333333	0
bin	0.46666666666667	0
bin	0.5	0
statistic scenarioPRJP1.node[99].wlan.radio 	packetErrorRate:histogram
field count 30552
field mean 0.48506020670171
field stddev 0.48884391246653
field sum 14819.559435151
field sqrsum 14489.101257796
field min 0
field max 1
attr source  packetErrorRate
attr title  "Packet error rate, histogram"
bin	-INF	0
bin	-0.5	0
bin	-0.43333333333333	0
bin	-0.36666666666667	0
bin	-0.3	0
bin	-0.23333333333333	0
bin	-0.16666666666667	0
bin	-0.1	0
bin	-0.033333333333333	14423
bin	0.033333333333333	499
bin	0.1	268
bin	0.16666666666667	178
bin	0.23333333333333	142
bin	0.3	107
bin	0.36666666666667	110
bin	0.43333333333333	97
bin	0.5	97
bin	0.56666666666667	85
bin	0.63333333333333	86
bin	0.7	88
bin	0.76666666666667	104
bin	0.83333333333333	133
bin	0.9	189
bin	0.96666666666667	13946
bin	1.0333333333333	0
bin	1.1	0
bin	1.1666666666667	0
bin	1.2333333333333	0
bin	1.3	0
bin	1.3666666666667	0
bin	1.4333333333333	0
bin	1.5	0
statistic scenarioPRJP1.node[99].wlan.radio 	minSNIR:histogram
field count 30552
field mean 591.58750446665
field stddev 12602.692877782
field sum 18074181.436465
field sqrsum 4863042648184
field min 6.3195806112462e-05
field max 1220064.4062912
attr source  minSNIR
attr title  "Min SNIR, histogram"
bin	-INF	0
bin	-7820.5587966842	0
bin	-6777.8097626765	0
bin	-5735.0607286689	0
bin	-4692.3116946613	0
bin	-3649.5626606536	0
bin	-2606.813626646	0
bin	-1564.0645926384	0
bin	-521.31555863073	28547
bin	521.4334753769	1080
bin	1564.1825093845	341
bin	2606.9315433922	155
bin	3649.6805773998	94
bin	4692.4296114074	54
bin	5735.1786454151	44
bin	6777.9276794227	30
bin	7820.6767134303	27
bin	8863.4257474379	20
bin	9906.1747814456	20
bin	10948.923815453	13
bin	11991.672849461	4
bin	13034.421883468	7
bin	14077.170917476	3
bin	15119.919951484	6
bin	16162.668985491	2
bin	17205.418019499	7
bin	18248.167053507	4
bin	19290.916087514	4
bin	20333.665121522	2
bin	21376.41415553	8
bin	22419.163189537	2
bin	23461.912223545	78
scalar scenarioPRJP1.node[99].lo0.lo 	droppedPkBitError:count 	0
attr interpolationmode  none
attr source  dropPkBitError
attr title  "packets dropped/bit error, count"
scalar scenarioPRJP1.node[99].lo0.lo 	droppedPkBitError:sum(packetBytes) 	0
attr interpolationmode  none
attr source  dropPkBitError
attr title  "packets dropped/bit error, sum(packetBytes)"
scalar scenarioPRJP1.node[99].lo0.lo 	rcvdPkFromHL:count 	0
attr interpolationmode  none
attr source  packetReceivedFromUpper
attr title  "packets received from higher layer, count"
scalar scenarioPRJP1.node[99].lo0.lo 	rcvdPkFromHL:sum(packetBytes) 	0
attr interpolationmode  none
attr source  packetReceivedFromUpper
attr title  "packets received from higher layer, sum(packetBytes)"
scalar scenarioPRJP1.node[99].lo0.lo 	passedUpPk:count 	0
attr interpolationmode  none
attr source  packetSentToUpper
attr title  "packets passed to higher layer, count"
scalar scenarioPRJP1.node[99].lo0.lo 	passedUpPk:sum(packetBytes) 	0
attr interpolationmode  none
attr source  packetSentToUpper
attr title  "packets passed to higher layer, sum(packetBytes)"
scalar scenarioPRJP1.node[41].app 	"Total sent" 	370
scalar scenarioPRJP1.node[41].app 	"Total received" 	28
scalar scenarioPRJP1.node[41].app 	"Total deleted" 	0
scalar scenarioPRJP1.node[41].app 	dropPk:count 	0
attr interpolationmode  none
attr source  dropPk
attr title  "packets dropped, count"
scalar scenarioPRJP1.node[41].app 	dropPk:sum(packetBytes) 	0
attr interpolationmode  none
attr source  dropPk
attr title  "packets dropped, sum(packetBytes)"
scalar scenarioPRJP1.node[41].app 	outOfOrderPk:count 	0
attr interpolationmode  none
attr source  outOfOrderPk
attr title  "packets received out of order, count"
scalar scenarioPRJP1.node[41].app 	outOfOrderPk:sum(packetBytes) 	0
attr interpolationmode  none
attr source  outOfOrderPk
attr title  "packets received out of order, sum(packetBytes)"
scalar scenarioPRJP1.node[41].app 	rcvdPk:count 	28
attr interpolationmode  none
attr source  rcvdPk
attr title  "packets received, count"
scalar scenarioPRJP1.node[41].app 	rcvdPk:sum(packetBytes) 	14336
attr interpolationmode  none
attr source  rcvdPk
attr title  "packets received, sum(packetBytes)"
statistic scenarioPRJP1.node[41].app 	endToEndDelay:histogram
field count 28
field mean 1.1569366154235
field stddev 2.3468158260872
field sum 32.394225231857
field sqrsum 186.18176738149
field min 0.001062157543
field max 10.715187417019
attr interpolationmode  none
attr source  messageAge(rcvdPk)
attr title  "delay, histogram"
attr unit  s
bin	-INF	0
bin	-5.356000472195	0
bin	-4.6417254548966	0
bin	-3.9274504375982	0
bin	-3.2131754202998	0
bin	-2.4989004030014	0
bin	-1.784625385703	0
bin	-1.0703503684046	0
bin	-0.3560753511062	18
bin	0.3581996661922	3
bin	1.0724746834906	1
bin	1.786749700789	0
bin	2.5010247180874	1
bin	3.2152997353858	3
bin	3.9295747526842	1
bin	4.6438497699826	0
bin	5.358124787281	0
bin	6.0723998045794	0
bin	6.7866748218778	0
bin	7.5009498391762	0
bin	8.2152248564746	0
bin	8.929499873773	0
bin	9.6437748910714	0
bin	10.35804990837	1
bin	11.072324925668	0
bin	11.786599942967	0
bin	12.500874960265	0
bin	13.215149977563	0
bin	13.929424994862	0
bin	14.64370001216	0
bin	15.357975029459	0
bin	16.072250046757	0
scalar scenarioPRJP1.node[41].app 	sentPk:count 	370
attr interpolationmode  none
attr source  sentPk
attr title  "packets sent, count"
scalar scenarioPRJP1.node[41].app 	sentPk:sum(packetBytes) 	189440
attr interpolationmode  none
attr source  sentPk
attr title  "packets sent, sum(packetBytes)"
scalar scenarioPRJP1.node[41].udp 	droppedPkBadChecksum:count 	0
attr interpolationmode  none
attr title  "packets dropped (checksum error), count"
scalar scenarioPRJP1.node[41].udp 	droppedPkWrongPort:count 	0
attr interpolationmode  none
attr title  "packets dropped (wrong port), count"
scalar scenarioPRJP1.node[41].udp 	passedUpPk:count 	28
attr interpolationmode  none
attr title  "packets passed up, count"
scalar scenarioPRJP1.node[41].udp 	rcvdPk:count 	28
attr interpolationmode  none
attr source  rcvdPk
attr title  "packets received, count"
scalar scenarioPRJP1.node[41].udp 	rcvdPk:sum(packetBytes) 	14560
attr interpolationmode  none
attr source  rcvdPk
attr title  "packets received, sum(packetBytes)"
scalar scenarioPRJP1.node[41].udp 	sentPk:count 	370
attr interpolationmode  none
attr source  sentPk
attr title  "packets sent, count"
scalar scenarioPRJP1.node[41].udp 	sentPk:sum(packetBytes) 	192400
attr interpolationmode  none
attr source  sentPk
attr title  "packets sent, sum(packetBytes)"
scalar scenarioPRJP1.node[41].networkLayer.arp 	failedARPResolution:count 	53
attr title  "ARP failed resolutions, count"
scalar scenarioPRJP1.node[41].networkLayer.arp 	completedARPResolution:count 	706
attr title  "ARP completed resolutions, count"
scalar scenarioPRJP1.node[41].networkLayer.arp 	initiatedARPResolution:count 	78
attr title  "ARP initiated resolutions, count"
scalar scenarioPRJP1.node[41].networkLayer.arp 	sentReply:count 	11
attr title  "ARP replies sent, count"
scalar scenarioPRJP1.node[41].networkLayer.arp 	sentReq:count 	205
attr title  "ARP request sent, count"
scalar scenarioPRJP1.node[41].mobility 	startTime 	4.8
scalar scenarioPRJP1.node[41].mobility 	totalTime 	154.3
scalar scenarioPRJP1.node[41].mobility 	stopTime 	159.2
scalar scenarioPRJP1.node[41].mobility 	minSpeed 	2.4760539471002e-13
scalar scenarioPRJP1.node[41].mobility 	maxSpeed 	19.29869047967
scalar scenarioPRJP1.node[41].mobility 	totalDistance 	1483.2346613943
scalar scenarioPRJP1.node[41].mobility 	totalCO2Emission 	483.76552202046
scalar scenarioPRJP1.node[41].wlan.mgmt 	dataQueueLen:max 	3
attr interpolationmode  sample-hold
attr title  "data queue length, max"
scalar scenarioPRJP1.node[41].wlan.mgmt 	dataQueueLen:timeavg 	0
attr interpolationmode  sample-hold
attr title  "data queue length, timeavg"
scalar scenarioPRJP1.node[41].wlan.mgmt 	dropPkByQueue:count 	0
attr interpolationmode  none
attr source  dropPkByQueue
attr title  "packets dropped by queue, count"
scalar scenarioPRJP1.node[41].wlan.mgmt 	dropPkByQueue:sum(packetBytes) 	0
attr interpolationmode  none
attr source  dropPkByQueue
attr title  "packets dropped by queue, sum(packetBytes)"
scalar scenarioPRJP1.node[41].wlan.mac 	"number of received packets" 	413
scalar scenarioPRJP1.node[41].wlan.mac 	"number of collisions" 	15316
scalar scenarioPRJP1.node[41].wlan.mac 	"number of internal collisions" 	0
scalar scenarioPRJP1.node[41].wlan.mac 	"number of retry for AC 0" 	1933
scalar scenarioPRJP1.node[41].wlan.mac 	"number of retry for AC 1" 	0
scalar scenarioPRJP1.node[41].wlan.mac 	"number of retry for AC 2" 	0
scalar scenarioPRJP1.node[41].wlan.mac 	"number of retry for AC 3" 	0
scalar scenarioPRJP1.node[41].wlan.mac 	"sent and received bits" 	6878088
scalar scenarioPRJP1.node[41].wlan.mac 	"sent packet within AC 0" 	290
scalar scenarioPRJP1.node[41].wlan.mac 	"sent packet within AC 1" 	0
scalar scenarioPRJP1.node[41].wlan.mac 	"sent packet within AC 2" 	0
scalar scenarioPRJP1.node[41].wlan.mac 	"sent packet within AC 3" 	0
scalar scenarioPRJP1.node[41].wlan.mac 	"sent in TXOP " 	0
scalar scenarioPRJP1.node[41].wlan.mac 	"sentWithoutRetry AC 0" 	181
scalar scenarioPRJP1.node[41].wlan.mac 	"sentWithoutRetry AC 1" 	0
scalar scenarioPRJP1.node[41].wlan.mac 	"sentWithoutRetry AC 2" 	0
scalar scenarioPRJP1.node[41].wlan.mac 	"sentWithoutRetry AC 3" 	0
scalar scenarioPRJP1.node[41].wlan.mac 	"numGivenUp AC 0" 	270
scalar scenarioPRJP1.node[41].wlan.mac 	"numGivenUp AC 1" 	0
scalar scenarioPRJP1.node[41].wlan.mac 	"numGivenUp AC 2" 	0
scalar scenarioPRJP1.node[41].wlan.mac 	"numGivenUp AC 3" 	0
scalar scenarioPRJP1.node[41].wlan.mac 	"numDropped AC 0" 	0
scalar scenarioPRJP1.node[41].wlan.mac 	"numDropped AC 1" 	0
scalar scenarioPRJP1.node[41].wlan.mac 	"numDropped AC 2" 	0
scalar scenarioPRJP1.node[41].wlan.mac 	"numDropped AC 3" 	0
scalar scenarioPRJP1.node[41].wlan.mac 	rcvdPkFromLL:count 	34082
attr interpolationmode  none
attr source  packetReceivedFromLower
attr title  "packets received from lower layer, count"
scalar scenarioPRJP1.node[41].wlan.mac 	rcvdPkFromLL:sum(packetBytes) 	13133747
attr interpolationmode  none
attr source  packetReceivedFromLower
attr title  "packets received from lower layer, sum(packetBytes)"
scalar scenarioPRJP1.node[41].wlan.mac 	sentDownPk:count 	5245
attr interpolationmode  none
attr source  packetSentToLower
attr title  "packets sent to lower layer, count"
scalar scenarioPRJP1.node[41].wlan.mac 	sentDownPk:sum(packetBytes) 	2082363
attr interpolationmode  none
attr source  packetSentToLower
attr title  "packets sent to lower layer, sum(packetBytes)"
scalar scenarioPRJP1.node[41].wlan.mac 	rcvdPkFromHL:count 	2899
attr interpolationmode  none
attr source  packetReceivedFromUpper
attr title  "packets received from higher layer, count"
scalar scenarioPRJP1.node[41].wlan.mac 	rcvdPkFromHL:sum(packetBytes) 	1008416
attr interpolationmode  none
attr source  packetReceivedFromUpper
attr title  "packets received from higher layer, sum(packetBytes)"
scalar scenarioPRJP1.node[41].wlan.mac 	passedUpPk:count 	8529
attr interpolationmode  none
attr source  packetSentToUpper
attr title  "packets passed to higher layer, count"
scalar scenarioPRJP1.node[41].wlan.mac 	passedUpPk:sum(packetBytes) 	2533848
attr interpolationmode  none
attr source  packetSentToUpper
attr title  "packets passed to higher layer, sum(packetBytes)"
statistic scenarioPRJP1.node[41].wlan.radio 	radioChannel:histogram
field count 1
field mean 3
field stddev -nan
field sum 3
field sqrsum 9
field min 3
field max 3
attr interpolationmode  sample-hold
attr source  radioChannelChanged
attr title  "Radio channel, histogram"
bin	-INF	0
bin	2	0
bin	3	1
bin	4	0
scalar scenarioPRJP1.node[41].wlan.radio 	transmissionState:count 	20980
attr interpolationmode  sample-hold
attr source  transmissionStateChanged
attr title  "Radio transmission state, count"
scalar scenarioPRJP1.node[41].wlan.radio 	receptionState:count 	85264
attr interpolationmode  sample-hold
attr source  receptionStateChanged
attr title  "Radio reception state, count"
scalar scenarioPRJP1.node[41].wlan.radio 	radioMode:count 	10492
attr interpolationmode  sample-hold
attr source  radioModeChanged
attr title  "Radio mode, count"
statistic scenarioPRJP1.node[41].wlan.radio 	symbolErrorRate:histogram
field count 0
field mean -nan
field stddev -nan
field sum 0
field sqrsum 0
field min -nan
field max -nan
attr source  symbolErrorRate
attr title  "Symbol error rate, histogram"
bin	-INF	0
bin	-0.5	0
bin	-0.46666666666667	0
bin	-0.43333333333333	0
bin	-0.4	0
bin	-0.36666666666667	0
bin	-0.33333333333333	0
bin	-0.3	0
bin	-0.26666666666667	0
bin	-0.23333333333333	0
bin	-0.2	0
bin	-0.16666666666667	0
bin	-0.13333333333333	0
bin	-0.1	0
bin	-0.066666666666667	0
bin	-0.033333333333333	0
bin	0	0
bin	0.033333333333333	0
bin	0.066666666666667	0
bin	0.1	0
bin	0.13333333333333	0
bin	0.16666666666667	0
bin	0.2	0
bin	0.23333333333333	0
bin	0.26666666666667	0
bin	0.3	0
bin	0.33333333333333	0
bin	0.36666666666667	0
bin	0.4	0
bin	0.43333333333333	0
bin	0.46666666666667	0
bin	0.5	0
statistic scenarioPRJP1.node[41].wlan.radio 	bitErrorRate:histogram
field count 0
field mean -nan
field stddev -nan
field sum 0
field sqrsum 0
field min -nan
field max -nan
attr source  bitErrorRate
attr title  "Bit error rate, histogram"
bin	-INF	0
bin	-0.5	0
bin	-0.46666666666667	0
bin	-0.43333333333333	0
bin	-0.4	0
bin	-0.36666666666667	0
bin	-0.33333333333333	0
bin	-0.3	0
bin	-0.26666666666667	0
bin	-0.23333333333333	0
bin	-0.2	0
bin	-0.16666666666667	0
bin	-0.13333333333333	0
bin	-0.1	0
bin	-0.066666666666667	0
bin	-0.033333333333333	0
bin	0	0
bin	0.033333333333333	0
bin	0.066666666666667	0
bin	0.1	0
bin	0.13333333333333	0
bin	0.16666666666667	0
bin	0.2	0
bin	0.23333333333333	0
bin	0.26666666666667	0
bin	0.3	0
bin	0.33333333333333	0
bin	0.36666666666667	0
bin	0.4	0
bin	0.43333333333333	0
bin	0.46666666666667	0
bin	0.5	0
statistic scenarioPRJP1.node[41].wlan.radio 	packetErrorRate:histogram
field count 34082
field mean 0.41365938419904
field stddev 0.48102843250936
field sum 14098.339132272
field sqrsum 13717.85673827
field min 0
field max 1
attr source  packetErrorRate
attr title  "Packet error rate, histogram"
bin	-INF	0
bin	-0.5	0
bin	-0.43333333333333	0
bin	-0.36666666666667	0
bin	-0.3	0
bin	-0.23333333333333	0
bin	-0.16666666666667	0
bin	-0.1	0
bin	-0.033333333333333	18433
bin	0.033333333333333	625
bin	0.1	307
bin	0.16666666666667	210
bin	0.23333333333333	170
bin	0.3	129
bin	0.36666666666667	101
bin	0.43333333333333	111
bin	0.5	103
bin	0.56666666666667	100
bin	0.63333333333333	115
bin	0.7	126
bin	0.76666666666667	94
bin	0.83333333333333	145
bin	0.9	205
bin	0.96666666666667	13108
bin	1.0333333333333	0
bin	1.1	0
bin	1.1666666666667	0
bin	1.2333333333333	0
bin	1.3	0
bin	1.3666666666667	0
bin	1.4333333333333	0
bin	1.5	0
statistic scenarioPRJP1.node[41].wlan.radio 	minSNIR:histogram
field count 34082
field mean 335.68647411509
field stddev 7458.1208526549
field sum 11440866.41079
field sqrsum 1899547319200.5
field min 0.00019054855548951
field max 701882.56484694
attr source  minSNIR
attr title  "Min SNIR, histogram"
bin	-INF	0
bin	-11770.886440285	0
bin	-10201.430642525	0
bin	-8631.9748447652	0
bin	-7062.5190470054	0
bin	-5493.0632492456	0
bin	-3923.6074514858	0
bin	-2354.1516537259	0
bin	-784.69585596611	33139
bin	784.75994179371	511
bin	2354.2157395535	138
bin	3923.6715373134	66
bin	5493.1273350732	37
bin	7062.583132833	29
bin	8632.0389305928	19
bin	10201.494728353	10
bin	11770.950526112	7
bin	13340.406323872	12
bin	14909.862121632	11
bin	16479.317919392	4
bin	18048.773717152	7
bin	19618.229514912	6
bin	21187.685312671	3
bin	22757.141110431	6
bin	24326.596908191	3
bin	25896.052705951	5
bin	27465.508503711	2
bin	29034.964301471	1
bin	30604.42009923	2
bin	32173.87589699	3
bin	33743.33169475	4
bin	35312.78749251	57
scalar scenarioPRJP1.node[41].lo0.lo 	droppedPkBitError:count 	0
attr interpolationmode  none
attr source  dropPkBitError
attr title  "packets dropped/bit error, count"
scalar scenarioPRJP1.node[41].lo0.lo 	droppedPkBitError:sum(packetBytes) 	0
attr interpolationmode  none
attr source  dropPkBitError
attr title  "packets dropped/bit error, sum(packetBytes)"
scalar scenarioPRJP1.node[41].lo0.lo 	rcvdPkFromHL:count 	0
attr interpolationmode  none
attr source  packetReceivedFromUpper
attr title  "packets received from higher layer, count"
scalar scenarioPRJP1.node[41].lo0.lo 	rcvdPkFromHL:sum(packetBytes) 	0
attr interpolationmode  none
attr source  packetReceivedFromUpper
attr title  "packets received from higher layer, sum(packetBytes)"
scalar scenarioPRJP1.node[41].lo0.lo 	passedUpPk:count 	0
attr interpolationmode  none
attr source  packetSentToUpper
attr title  "packets passed to higher layer, count"
scalar scenarioPRJP1.node[41].lo0.lo 	passedUpPk:sum(packetBytes) 	0
attr interpolationmode  none
attr source  packetSentToUpper
attr title  "packets passed to higher layer, sum(packetBytes)"
scalar scenarioPRJP1.node[57].app 	"Total sent" 	378
scalar scenarioPRJP1.node[57].app 	"Total received" 	24
scalar scenarioPRJP1.node[57].app 	"Total deleted" 	0
scalar scenarioPRJP1.node[57].app 	dropPk:count 	0
attr interpolationmode  none
attr source  dropPk
attr title  "packets dropped, count"
scalar scenarioPRJP1.node[57].app 	dropPk:sum(packetBytes) 	0
attr interpolationmode  none
attr source  dropPk
attr title  "packets dropped, sum(packetBytes)"
scalar scenarioPRJP1.node[57].app 	outOfOrderPk:count 	0
attr interpolationmode  none
attr source  outOfOrderPk
attr title  "packets received out of order, count"
scalar scenarioPRJP1.node[57].app 	outOfOrderPk:sum(packetBytes) 	0
attr interpolationmode  none
attr source  outOfOrderPk
attr title  "packets received out of order, sum(packetBytes)"
scalar scenarioPRJP1.node[57].app 	rcvdPk:count 	24
attr interpolationmode  none
attr source  rcvdPk
attr title  "packets received, count"
scalar scenarioPRJP1.node[57].app 	rcvdPk:sum(packetBytes) 	12288
attr interpolationmode  none
attr source  rcvdPk
attr title  "packets received, sum(packetBytes)"
statistic scenarioPRJP1.node[57].app 	endToEndDelay:histogram
field count 24
field mean 0.66571875211071
field stddev 1.1984309590312
field sum 15.977250050657
field sqrsum 43.669800527868
field min 0.001010061558
field max 4.750016591783
attr interpolationmode  none
attr source  messageAge(rcvdPk)
attr title  "delay, histogram"
attr unit  s
bin	-INF	0
bin	-2.3734932035545	0
bin	-2.0568927682062	0
bin	-1.7402923328578	0
bin	-1.4236918975095	0
bin	-1.1070914621612	0
bin	-0.79049102681283	0
bin	-0.4738905914645	0
bin	-0.15729015611617	17
bin	0.15931027923217	0
bin	0.4759107145805	0
bin	0.79251114992883	0
bin	1.1091115852772	2
bin	1.4257120206255	0
bin	1.7423124559738	2
bin	2.0589128913222	1
bin	2.3755133266705	1
bin	2.6921137620188	0
bin	3.0087141973672	0
bin	3.3253146327155	0
bin	3.6419150680638	0
bin	3.9585155034122	0
bin	4.2751159387605	0
bin	4.5917163741088	1
bin	4.9083168094572	0
bin	5.2249172448055	0
bin	5.5415176801538	0
bin	5.8581181155022	0
bin	6.1747185508505	0
bin	6.4913189861988	0
bin	6.8079194215472	0
bin	7.1245198568955	0
scalar scenarioPRJP1.node[57].app 	sentPk:count 	378
attr interpolationmode  none
attr source  sentPk
attr title  "packets sent, count"
scalar scenarioPRJP1.node[57].app 	sentPk:sum(packetBytes) 	193536
attr interpolationmode  none
attr source  sentPk
attr title  "packets sent, sum(packetBytes)"
scalar scenarioPRJP1.node[57].udp 	droppedPkBadChecksum:count 	0
attr interpolationmode  none
attr title  "packets dropped (checksum error), count"
scalar scenarioPRJP1.node[57].udp 	droppedPkWrongPort:count 	0
attr interpolationmode  none
attr title  "packets dropped (wrong port), count"
scalar scenarioPRJP1.node[57].udp 	passedUpPk:count 	24
attr interpolationmode  none
attr title  "packets passed up, count"
scalar scenarioPRJP1.node[57].udp 	rcvdPk:count 	24
attr interpolationmode  none
attr source  rcvdPk
attr title  "packets received, count"
scalar scenarioPRJP1.node[57].udp 	rcvdPk:sum(packetBytes) 	12480
attr interpolationmode  none
attr source  rcvdPk
attr title  "packets received, sum(packetBytes)"
scalar scenarioPRJP1.node[57].udp 	sentPk:count 	378
attr interpolationmode  none
attr source  sentPk
attr title  "packets sent, count"
scalar scenarioPRJP1.node[57].udp 	sentPk:sum(packetBytes) 	196560
attr interpolationmode  none
attr source  sentPk
attr title  "packets sent, sum(packetBytes)"
scalar scenarioPRJP1.node[57].networkLayer.arp 	failedARPResolution:count 	50
attr title  "ARP failed resolutions, count"
scalar scenarioPRJP1.node[57].networkLayer.arp 	completedARPResolution:count 	809
attr title  "ARP completed resolutions, count"
scalar scenarioPRJP1.node[57].networkLayer.arp 	initiatedARPResolution:count 	79
attr title  "ARP initiated resolutions, count"
scalar scenarioPRJP1.node[57].networkLayer.arp 	sentReply:count 	12
attr title  "ARP replies sent, count"
scalar scenarioPRJP1.node[57].networkLayer.arp 	sentReq:count 	203
attr title  "ARP request sent, count"
scalar scenarioPRJP1.node[57].mobility 	startTime 	4.9
scalar scenarioPRJP1.node[57].mobility 	totalTime 	156.8
scalar scenarioPRJP1.node[57].mobility 	stopTime 	161.8
scalar scenarioPRJP1.node[57].mobility 	minSpeed 	2.4757172696535e-13
scalar scenarioPRJP1.node[57].mobility 	maxSpeed 	16.949766483713
scalar scenarioPRJP1.node[57].mobility 	totalDistance 	1448.0209740072
scalar scenarioPRJP1.node[57].mobility 	totalCO2Emission 	404.7082614704
scalar scenarioPRJP1.node[57].wlan.mgmt 	dataQueueLen:max 	3
attr interpolationmode  sample-hold
attr title  "data queue length, max"
scalar scenarioPRJP1.node[57].wlan.mgmt 	dataQueueLen:timeavg 	0
attr interpolationmode  sample-hold
attr title  "data queue length, timeavg"
scalar scenarioPRJP1.node[57].wlan.mgmt 	dropPkByQueue:count 	0
attr interpolationmode  none
attr source  dropPkByQueue
attr title  "packets dropped by queue, count"
scalar scenarioPRJP1.node[57].wlan.mgmt 	dropPkByQueue:sum(packetBytes) 	0
attr interpolationmode  none
attr source  dropPkByQueue
attr title  "packets dropped by queue, sum(packetBytes)"
scalar scenarioPRJP1.node[57].wlan.mac 	"number of received packets" 	409
scalar scenarioPRJP1.node[57].wlan.mac 	"number of collisions" 	15887
scalar scenarioPRJP1.node[57].wlan.mac 	"number of internal collisions" 	0
scalar scenarioPRJP1.node[57].wlan.mac 	"number of retry for AC 0" 	2160
scalar scenarioPRJP1.node[57].wlan.mac 	"number of retry for AC 1" 	0
scalar scenarioPRJP1.node[57].wlan.mac 	"number of retry for AC 2" 	0
scalar scenarioPRJP1.node[57].wlan.mac 	"number of retry for AC 3" 	0
scalar scenarioPRJP1.node[57].wlan.mac 	"sent and received bits" 	6574048
scalar scenarioPRJP1.node[57].wlan.mac 	"sent packet within AC 0" 	250
scalar scenarioPRJP1.node[57].wlan.mac 	"sent packet within AC 1" 	0
scalar scenarioPRJP1.node[57].wlan.mac 	"sent packet within AC 2" 	0
scalar scenarioPRJP1.node[57].wlan.mac 	"sent packet within AC 3" 	0
scalar scenarioPRJP1.node[57].wlan.mac 	"sent in TXOP " 	0
scalar scenarioPRJP1.node[57].wlan.mac 	"sentWithoutRetry AC 0" 	187
scalar scenarioPRJP1.node[57].wlan.mac 	"sentWithoutRetry AC 1" 	0
scalar scenarioPRJP1.node[57].wlan.mac 	"sentWithoutRetry AC 2" 	0
scalar scenarioPRJP1.node[57].wlan.mac 	"sentWithoutRetry AC 3" 	0
scalar scenarioPRJP1.node[57].wlan.mac 	"numGivenUp AC 0" 	336
scalar scenarioPRJP1.node[57].wlan.mac 	"numGivenUp AC 1" 	0
scalar scenarioPRJP1.node[57].wlan.mac 	"numGivenUp AC 2" 	0
scalar scenarioPRJP1.node[57].wlan.mac 	"numGivenUp AC 3" 	0
scalar scenarioPRJP1.node[57].wlan.mac 	"numDropped AC 0" 	0
scalar scenarioPRJP1.node[57].wlan.mac 	"numDropped AC 1" 	0
scalar scenarioPRJP1.node[57].wlan.mac 	"numDropped AC 2" 	0
scalar scenarioPRJP1.node[57].wlan.mac 	"numDropped AC 3" 	0
scalar scenarioPRJP1.node[57].wlan.mac 	rcvdPkFromLL:count 	35243
attr interpolationmode  none
attr source  packetReceivedFromLower
attr title  "packets received from lower layer, count"
scalar scenarioPRJP1.node[57].wlan.mac 	rcvdPkFromLL:sum(packetBytes) 	13313382
attr interpolationmode  none
attr source  packetReceivedFromLower
attr title  "packets received from lower layer, sum(packetBytes)"
scalar scenarioPRJP1.node[57].wlan.mac 	sentDownPk:count 	5525
attr interpolationmode  none
attr source  packetSentToLower
attr title  "packets sent to lower layer, count"
scalar scenarioPRJP1.node[57].wlan.mac 	sentDownPk:sum(packetBytes) 	2200458
attr interpolationmode  none
attr source  packetSentToLower
attr title  "packets sent to lower layer, sum(packetBytes)"
scalar scenarioPRJP1.node[57].wlan.mac 	rcvdPkFromHL:count 	2956
attr interpolationmode  none
attr source  packetReceivedFromUpper
attr title  "packets received from higher layer, count"
scalar scenarioPRJP1.node[57].wlan.mac 	rcvdPkFromHL:sum(packetBytes) 	1006412
attr interpolationmode  none
attr source  packetReceivedFromUpper
attr title  "packets received from higher layer, sum(packetBytes)"
scalar scenarioPRJP1.node[57].wlan.mac 	passedUpPk:count 	9183
attr interpolationmode  none
attr source  packetSentToUpper
attr title  "packets passed to higher layer, count"
scalar scenarioPRJP1.node[57].wlan.mac 	passedUpPk:sum(packetBytes) 	2644669
attr interpolationmode  none
attr source  packetSentToUpper
attr title  "packets passed to higher layer, sum(packetBytes)"
statistic scenarioPRJP1.node[57].wlan.radio 	radioChannel:histogram
field count 1
field mean 3
field stddev -nan
field sum 3
field sqrsum 9
field min 3
field max 3
attr interpolationmode  sample-hold
attr source  radioChannelChanged
attr title  "Radio channel, histogram"
bin	-INF	0
bin	2	0
bin	3	1
bin	4	0
scalar scenarioPRJP1.node[57].wlan.radio 	transmissionState:count 	22100
attr interpolationmode  sample-hold
attr source  transmissionStateChanged
attr title  "Radio transmission state, count"
scalar scenarioPRJP1.node[57].wlan.radio 	receptionState:count 	90786
attr interpolationmode  sample-hold
attr source  receptionStateChanged
attr title  "Radio reception state, count"
scalar scenarioPRJP1.node[57].wlan.radio 	radioMode:count 	11052
attr interpolationmode  sample-hold
attr source  radioModeChanged
attr title  "Radio mode, count"
statistic scenarioPRJP1.node[57].wlan.radio 	symbolErrorRate:histogram
field count 0
field mean -nan
field stddev -nan
field sum 0
field sqrsum 0
field min -nan
field max -nan
attr source  symbolErrorRate
attr title  "Symbol error rate, histogram"
bin	-INF	0
bin	-0.5	0
bin	-0.46666666666667	0
bin	-0.43333333333333	0
bin	-0.4	0
bin	-0.36666666666667	0
bin	-0.33333333333333	0
bin	-0.3	0
bin	-0.26666666666667	0
bin	-0.23333333333333	0
bin	-0.2	0
bin	-0.16666666666667	0
bin	-0.13333333333333	0
bin	-0.1	0
bin	-0.066666666666667	0
bin	-0.033333333333333	0
bin	0	0
bin	0.033333333333333	0
bin	0.066666666666667	0
bin	0.1	0
bin	0.13333333333333	0
bin	0.16666666666667	0
bin	0.2	0
bin	0.23333333333333	0
bin	0.26666666666667	0
bin	0.3	0
bin	0.33333333333333	0
bin	0.36666666666667	0
bin	0.4	0
bin	0.43333333333333	0
bin	0.46666666666667	0
bin	0.5	0
statistic scenarioPRJP1.node[57].wlan.radio 	bitErrorRate:histogram
field count 0
field mean -nan
field stddev -nan
field sum 0
field sqrsum 0
field min -nan
field max -nan
attr source  bitErrorRate
attr title  "Bit error rate, histogram"
bin	-INF	0
bin	-0.5	0
bin	-0.46666666666667	0
bin	-0.43333333333333	0
bin	-0.4	0
bin	-0.36666666666667	0
bin	-0.33333333333333	0
bin	-0.3	0
bin	-0.26666666666667	0
bin	-0.23333333333333	0
bin	-0.2	0
bin	-0.16666666666667	0
bin	-0.13333333333333	0
bin	-0.1	0
bin	-0.066666666666667	0
bin	-0.033333333333333	0
bin	0	0
bin	0.033333333333333	0
bin	0.066666666666667	0
bin	0.1	0
bin	0.13333333333333	0
bin	0.16666666666667	0
bin	0.2	0
bin	0.23333333333333	0
bin	0.26666666666667	0
bin	0.3	0
bin	0.33333333333333	0
bin	0.36666666666667	0
bin	0.4	0
bin	0.43333333333333	0
bin	0.46666666666667	0
bin	0.5	0
statistic scenarioPRJP1.node[57].wlan.radio 	packetErrorRate:histogram
field count 35243
field mean 0.41979973376839
field stddev 0.48391293602407
field sum 14795.002017199
field sqrsum 14463.618004299
field min 0
field max 1
attr source  packetErrorRate
attr title  "Packet error rate, histogram"
bin	-INF	0
bin	-1	0
bin	0	22472
bin	1	12771
bin	2	0
statistic scenarioPRJP1.node[57].wlan.radio 	minSNIR:histogram
field count 35243
field mean 367.21038940989
field stddev 6186.3826250125
field sum 12941595.753973
field sqrsum 1353510499679.3
field min 0.00027958515697322
field max 676828.21891764
attr source  minSNIR
attr title  "Min SNIR, histogram"
bin	-INF	0
bin	-8249.3086988969	0
bin	-7149.4003168539	0
bin	-6049.4919348108	0
bin	-4949.5835527678	0
bin	-3849.6751707248	0
bin	-2749.7667886818	0
bin	-1649.8584066387	0
bin	-549.9500245957	33540
bin	549.95835744733	1027
bin	1649.8667394904	227
bin	2749.7751215334	107
bin	3849.6835035764	67
bin	4949.5918856194	38
bin	6049.5002676625	28
bin	7149.4086497055	11
bin	8249.3170317485	15
bin	9349.2254137915	13
bin	10449.133795835	12
bin	11549.042177878	8
bin	12648.950559921	10
bin	13748.858941964	3
bin	14848.767324007	3
bin	15948.67570605	6
bin	17048.584088093	6
bin	18148.492470136	8
bin	19248.400852179	7
bin	20348.309234222	1
bin	21448.217616265	4
bin	22548.125998308	2
bin	23648.034380351	3
bin	24747.942762394	97
scalar scenarioPRJP1.node[57].lo0.lo 	droppedPkBitError:count 	0
attr interpolationmode  none
attr source  dropPkBitError
attr title  "packets dropped/bit error, count"
scalar scenarioPRJP1.node[57].lo0.lo 	droppedPkBitError:sum(packetBytes) 	0
attr interpolationmode  none
attr source  dropPkBitError
attr title  "packets dropped/bit error, sum(packetBytes)"
scalar scenarioPRJP1.node[57].lo0.lo 	rcvdPkFromHL:count 	0
attr interpolationmode  none
attr source  packetReceivedFromUpper
attr title  "packets received from higher layer, count"
scalar scenarioPRJP1.node[57].lo0.lo 	rcvdPkFromHL:sum(packetBytes) 	0
attr interpolationmode  none
attr source  packetReceivedFromUpper
attr title  "packets received from higher layer, sum(packetBytes)"
scalar scenarioPRJP1.node[57].lo0.lo 	passedUpPk:count 	0
attr interpolationmode  none
attr source  packetSentToUpper
attr title  "packets passed to higher layer, count"
scalar scenarioPRJP1.node[57].lo0.lo 	passedUpPk:sum(packetBytes) 	0
attr interpolationmode  none
attr source  packetSentToUpper
attr title  "packets passed to higher layer, sum(packetBytes)"
scalar scenarioPRJP1.node[34].app 	"Total sent" 	622
scalar scenarioPRJP1.node[34].app 	"Total received" 	25
scalar scenarioPRJP1.node[34].app 	"Total deleted" 	0
scalar scenarioPRJP1.node[34].app 	dropPk:count 	0
attr interpolationmode  none
attr source  dropPk
attr title  "packets dropped, count"
scalar scenarioPRJP1.node[34].app 	dropPk:sum(packetBytes) 	0
attr interpolationmode  none
attr source  dropPk
attr title  "packets dropped, sum(packetBytes)"
scalar scenarioPRJP1.node[34].app 	outOfOrderPk:count 	0
attr interpolationmode  none
attr source  outOfOrderPk
attr title  "packets received out of order, count"
scalar scenarioPRJP1.node[34].app 	outOfOrderPk:sum(packetBytes) 	0
attr interpolationmode  none
attr source  outOfOrderPk
attr title  "packets received out of order, sum(packetBytes)"
scalar scenarioPRJP1.node[34].app 	rcvdPk:count 	25
attr interpolationmode  none
attr source  rcvdPk
attr title  "packets received, count"
scalar scenarioPRJP1.node[34].app 	rcvdPk:sum(packetBytes) 	12800
attr interpolationmode  none
attr source  rcvdPk
attr title  "packets received, sum(packetBytes)"
statistic scenarioPRJP1.node[34].app 	endToEndDelay:histogram
field count 25
field mean 0.17852548741392
field stddev 0.47233753861046
field sum 4.463137185348
field sqrsum 6.1512497505436
field min 0.000958025215
field max 1.887915961465
attr interpolationmode  none
attr source  messageAge(rcvdPk)
attr title  "delay, histogram"
attr unit  s
bin	-INF	0
bin	-0.94252094291	0
bin	-0.81672374716	0
bin	-0.69092655141	0
bin	-0.56512935566	0
bin	-0.43933215991	0
bin	-0.31353496416	0
bin	-0.18773776841	0
bin	-0.06194057266	20
bin	0.06385662309	2
bin	0.18965381884	0
bin	0.31545101459	0
bin	0.44124821034	0
bin	0.56704540609	0
bin	0.69284260184	1
bin	0.81863979759	0
bin	0.94443699334	0
bin	1.07023418909	0
bin	1.19603138484	0
bin	1.32182858059	1
bin	1.44762577634	0
bin	1.57342297209	0
bin	1.69922016784	0
bin	1.82501736359	1
bin	1.95081455934	0
bin	2.07661175509	0
bin	2.20240895084	0
bin	2.32820614659	0
bin	2.45400334234	0
bin	2.57980053809	0
bin	2.70559773384	0
bin	2.83139492959	0
scalar scenarioPRJP1.node[34].app 	sentPk:count 	622
attr interpolationmode  none
attr source  sentPk
attr title  "packets sent, count"
scalar scenarioPRJP1.node[34].app 	sentPk:sum(packetBytes) 	318464
attr interpolationmode  none
attr source  sentPk
attr title  "packets sent, sum(packetBytes)"
scalar scenarioPRJP1.node[34].udp 	droppedPkBadChecksum:count 	0
attr interpolationmode  none
attr title  "packets dropped (checksum error), count"
scalar scenarioPRJP1.node[34].udp 	droppedPkWrongPort:count 	0
attr interpolationmode  none
attr title  "packets dropped (wrong port), count"
scalar scenarioPRJP1.node[34].udp 	passedUpPk:count 	25
attr interpolationmode  none
attr title  "packets passed up, count"
scalar scenarioPRJP1.node[34].udp 	rcvdPk:count 	25
attr interpolationmode  none
attr source  rcvdPk
attr title  "packets received, count"
scalar scenarioPRJP1.node[34].udp 	rcvdPk:sum(packetBytes) 	13000
attr interpolationmode  none
attr source  rcvdPk
attr title  "packets received, sum(packetBytes)"
scalar scenarioPRJP1.node[34].udp 	sentPk:count 	622
attr interpolationmode  none
attr source  sentPk
attr title  "packets sent, count"
scalar scenarioPRJP1.node[34].udp 	sentPk:sum(packetBytes) 	323440
attr interpolationmode  none
attr source  sentPk
attr title  "packets sent, sum(packetBytes)"
scalar scenarioPRJP1.node[34].networkLayer.arp 	failedARPResolution:count 	86
attr title  "ARP failed resolutions, count"
scalar scenarioPRJP1.node[34].networkLayer.arp 	completedARPResolution:count 	1260
attr title  "ARP completed resolutions, count"
scalar scenarioPRJP1.node[34].networkLayer.arp 	initiatedARPResolution:count 	119
attr title  "ARP initiated resolutions, count"
scalar scenarioPRJP1.node[34].networkLayer.arp 	sentReply:count 	22
attr title  "ARP replies sent, count"
scalar scenarioPRJP1.node[34].networkLayer.arp 	sentReq:count 	321
attr title  "ARP request sent, count"
scalar scenarioPRJP1.node[34].mobility 	startTime 	2.5
scalar scenarioPRJP1.node[34].mobility 	totalTime 	244.7
scalar scenarioPRJP1.node[34].mobility 	stopTime 	247.3
scalar scenarioPRJP1.node[34].mobility 	minSpeed 	2.4761728820482e-13
scalar scenarioPRJP1.node[34].mobility 	maxSpeed 	16.885867146736
scalar scenarioPRJP1.node[34].mobility 	totalDistance 	2233.963790605
scalar scenarioPRJP1.node[34].mobility 	totalCO2Emission 	638.33022012751
scalar scenarioPRJP1.node[34].wlan.mgmt 	dataQueueLen:max 	3
attr interpolationmode  sample-hold
attr title  "data queue length, max"
scalar scenarioPRJP1.node[34].wlan.mgmt 	dataQueueLen:timeavg 	0
attr interpolationmode  sample-hold
attr title  "data queue length, timeavg"
scalar scenarioPRJP1.node[34].wlan.mgmt 	dropPkByQueue:count 	0
attr interpolationmode  none
attr source  dropPkByQueue
attr title  "packets dropped by queue, count"
scalar scenarioPRJP1.node[34].wlan.mgmt 	dropPkByQueue:sum(packetBytes) 	0
attr interpolationmode  none
attr source  dropPkByQueue
attr title  "packets dropped by queue, sum(packetBytes)"
scalar scenarioPRJP1.node[34].wlan.mac 	"number of received packets" 	682
scalar scenarioPRJP1.node[34].wlan.mac 	"number of collisions" 	23062
scalar scenarioPRJP1.node[34].wlan.mac 	"number of internal collisions" 	0
scalar scenarioPRJP1.node[34].wlan.mac 	"number of retry for AC 0" 	3257
scalar scenarioPRJP1.node[34].wlan.mac 	"number of retry for AC 1" 	0
scalar scenarioPRJP1.node[34].wlan.mac 	"number of retry for AC 2" 	0
scalar scenarioPRJP1.node[34].wlan.mac 	"number of retry for AC 3" 	0
scalar scenarioPRJP1.node[34].wlan.mac 	"sent and received bits" 	11727888
scalar scenarioPRJP1.node[34].wlan.mac 	"sent packet within AC 0" 	498
scalar scenarioPRJP1.node[34].wlan.mac 	"sent packet within AC 1" 	0
scalar scenarioPRJP1.node[34].wlan.mac 	"sent packet within AC 2" 	0
scalar scenarioPRJP1.node[34].wlan.mac 	"sent packet within AC 3" 	0
scalar scenarioPRJP1.node[34].wlan.mac 	"sent in TXOP " 	0
scalar scenarioPRJP1.node[34].wlan.mac 	"sentWithoutRetry AC 0" 	384
scalar scenarioPRJP1.node[34].wlan.mac 	"sentWithoutRetry AC 1" 	0
scalar scenarioPRJP1.node[34].wlan.mac 	"sentWithoutRetry AC 2" 	0
scalar scenarioPRJP1.node[34].wlan.mac 	"sentWithoutRetry AC 3" 	0
scalar scenarioPRJP1.node[34].wlan.mac 	"numGivenUp AC 0" 	501
scalar scenarioPRJP1.node[34].wlan.mac 	"numGivenUp AC 1" 	0
scalar scenarioPRJP1.node[34].wlan.mac 	"numGivenUp AC 2" 	0
scalar scenarioPRJP1.node[34].wlan.mac 	"numGivenUp AC 3" 	0
scalar scenarioPRJP1.node[34].wlan.mac 	"numDropped AC 0" 	0
scalar scenarioPRJP1.node[34].wlan.mac 	"numDropped AC 1" 	0
scalar scenarioPRJP1.node[34].wlan.mac 	"numDropped AC 2" 	0
scalar scenarioPRJP1.node[34].wlan.mac 	"numDropped AC 3" 	0
scalar scenarioPRJP1.node[34].wlan.mac 	rcvdPkFromLL:count 	52871
attr interpolationmode  none
attr source  packetReceivedFromLower
attr title  "packets received from lower layer, count"
scalar scenarioPRJP1.node[34].wlan.mac 	rcvdPkFromLL:sum(packetBytes) 	21068463
attr interpolationmode  none
attr source  packetReceivedFromLower
attr title  "packets received from lower layer, sum(packetBytes)"
scalar scenarioPRJP1.node[34].wlan.mac 	sentDownPk:count 	8837
attr interpolationmode  none
attr source  packetSentToLower
attr title  "packets sent to lower layer, count"
scalar scenarioPRJP1.node[34].wlan.mac 	sentDownPk:sum(packetBytes) 	3530695
attr interpolationmode  none
attr source  packetSentToLower
attr title  "packets sent to lower layer, sum(packetBytes)"
scalar scenarioPRJP1.node[34].wlan.mac 	rcvdPkFromHL:count 	4898
attr interpolationmode  none
attr source  packetReceivedFromUpper
attr title  "packets received from higher layer, count"
scalar scenarioPRJP1.node[34].wlan.mac 	rcvdPkFromHL:sum(packetBytes) 	1740126
attr interpolationmode  none
attr source  packetReceivedFromUpper
attr title  "packets received from higher layer, sum(packetBytes)"
scalar scenarioPRJP1.node[34].wlan.mac 	passedUpPk:count 	13944
attr interpolationmode  none
attr source  packetSentToUpper
attr title  "packets passed to higher layer, count"
scalar scenarioPRJP1.node[34].wlan.mac 	passedUpPk:sum(packetBytes) 	4466069
attr interpolationmode  none
attr source  packetSentToUpper
attr title  "packets passed to higher layer, sum(packetBytes)"
statistic scenarioPRJP1.node[34].wlan.radio 	radioChannel:histogram
field count 1
field mean 3
field stddev -nan
field sum 3
field sqrsum 9
field min 3
field max 3
attr interpolationmode  sample-hold
attr source  radioChannelChanged
attr title  "Radio channel, histogram"
bin	-INF	0
bin	2	0
bin	3	1
bin	4	0
scalar scenarioPRJP1.node[34].wlan.radio 	transmissionState:count 	35348
attr interpolationmode  sample-hold
attr source  transmissionStateChanged
attr title  "Radio transmission state, count"
scalar scenarioPRJP1.node[34].wlan.radio 	receptionState:count 	137445
attr interpolationmode  sample-hold
attr source  receptionStateChanged
attr title  "Radio reception state, count"
scalar scenarioPRJP1.node[34].wlan.radio 	radioMode:count 	17676
attr interpolationmode  sample-hold
attr source  radioModeChanged
attr title  "Radio mode, count"
statistic scenarioPRJP1.node[34].wlan.radio 	symbolErrorRate:histogram
field count 0
field mean -nan
field stddev -nan
field sum 0
field sqrsum 0
field min -nan
field max -nan
attr source  symbolErrorRate
attr title  "Symbol error rate, histogram"
bin	-INF	0
bin	-0.5	0
bin	-0.46666666666667	0
bin	-0.43333333333333	0
bin	-0.4	0
bin	-0.36666666666667	0
bin	-0.33333333333333	0
bin	-0.3	0
bin	-0.26666666666667	0
bin	-0.23333333333333	0
bin	-0.2	0
bin	-0.16666666666667	0
bin	-0.13333333333333	0
bin	-0.1	0
bin	-0.066666666666667	0
bin	-0.033333333333333	0
bin	0	0
bin	0.033333333333333	0
bin	0.066666666666667	0
bin	0.1	0
bin	0.13333333333333	0
bin	0.16666666666667	0
bin	0.2	0
bin	0.23333333333333	0
bin	0.26666666666667	0
bin	0.3	0
bin	0.33333333333333	0
bin	0.36666666666667	0
bin	0.4	0
bin	0.43333333333333	0
bin	0.46666666666667	0
bin	0.5	0
statistic scenarioPRJP1.node[34].wlan.radio 	bitErrorRate:histogram
field count 0
field mean -nan
field stddev -nan
field sum 0
field sqrsum 0
field min -nan
field max -nan
attr source  bitErrorRate
attr title  "Bit error rate, histogram"
bin	-INF	0
bin	-0.5	0
bin	-0.46666666666667	0
bin	-0.43333333333333	0
bin	-0.4	0
bin	-0.36666666666667	0
bin	-0.33333333333333	0
bin	-0.3	0
bin	-0.26666666666667	0
bin	-0.23333333333333	0
bin	-0.2	0
bin	-0.16666666666667	0
bin	-0.13333333333333	0
bin	-0.1	0
bin	-0.066666666666667	0
bin	-0.033333333333333	0
bin	0	0
bin	0.033333333333333	0
bin	0.066666666666667	0
bin	0.1	0
bin	0.13333333333333	0
bin	0.16666666666667	0
bin	0.2	0
bin	0.23333333333333	0
bin	0.26666666666667	0
bin	0.3	0
bin	0.33333333333333	0
bin	0.36666666666667	0
bin	0.4	0
bin	0.43333333333333	0
bin	0.46666666666667	0
bin	0.5	0
statistic scenarioPRJP1.node[34].wlan.radio 	packetErrorRate:histogram
field count 52871
field mean 0.40829064753383
field stddev 0.4822216459505
field sum 21586.734825761
field sqrsum 21107.930975724
field min 0
field max 1
attr source  packetErrorRate
attr title  "Packet error rate, histogram"
bin	-INF	0
bin	-0.10346353510863	0
bin	-0.089668397094148	0
bin	-0.075873259079664	0
bin	-0.062078121065179	0
bin	-0.048282983050695	0
bin	-0.034487845036211	0
bin	-0.020692707021726	0
bin	-0.0068975690072422	28490
bin	0.0068975690072422	641
bin	0.020692707021726	340
bin	0.034487845036211	183
bin	0.048282983050695	174
bin	0.062078121065179	123
bin	0.075873259079664	100
bin	0.089668397094148	105
bin	0.10346353510863	70
bin	0.11725867312312	60
bin	0.1310538111376	73
bin	0.14484894915209	75
bin	0.15864408716657	52
bin	0.17243922518105	62
bin	0.18623436319554	55
bin	0.20002950121002	48
bin	0.21382463922451	65
bin	0.22761977723899	44
bin	0.24141491525348	46
bin	0.25521005326796	40
bin	0.26900519128244	40
bin	0.28280032929693	40
bin	0.29659546731141	36
bin	0.3103906053259	21909
statistic scenarioPRJP1.node[34].wlan.radio 	minSNIR:histogram
field count 52871
field mean 678.29099380985
field stddev 10160.77077545
field sum 35861923.133721
field sqrsum 5482690381140
field min 0.00013617691283683
field max 737405.87097684
attr source  minSNIR
attr title  "Min SNIR, histogram"
bin	-INF	0
bin	-9278.4249141611	0
bin	-8041.0404449926	0
bin	-6803.6559758241	0
bin	-5566.2715066555	0
bin	-4328.887037487	0
bin	-3091.5025683185	0
bin	-1854.11809915	0
bin	-616.73362998146	48413
bin	620.65083918706	2510
bin	1858.0353083556	713
bin	3095.4197775241	349
bin	4332.8042466926	175
bin	5570.1887158611	136
bin	6807.5731850297	72
bin	8044.9576541982	58
bin	9282.3421233667	37
bin	10519.726592535	37
bin	11757.111061704	27
bin	12994.495530872	25
bin	14231.880000041	20
bin	15469.264469209	18
bin	16706.648938378	18
bin	17944.033407546	14
bin	19181.417876715	15
bin	20418.802345883	6
bin	21656.186815052	11
bin	22893.57128422	12
bin	24130.955753389	17
bin	25368.340222557	5
bin	26605.724691726	7
bin	27843.109160895	176
scalar scenarioPRJP1.node[34].lo0.lo 	droppedPkBitError:count 	0
attr interpolationmode  none
attr source  dropPkBitError
attr title  "packets dropped/bit error, count"
scalar scenarioPRJP1.node[34].lo0.lo 	droppedPkBitError:sum(packetBytes) 	0
attr interpolationmode  none
attr source  dropPkBitError
attr title  "packets dropped/bit error, sum(packetBytes)"
scalar scenarioPRJP1.node[34].lo0.lo 	rcvdPkFromHL:count 	0
attr interpolationmode  none
attr source  packetReceivedFromUpper
attr title  "packets received from higher layer, count"
scalar scenarioPRJP1.node[34].lo0.lo 	rcvdPkFromHL:sum(packetBytes) 	0
attr interpolationmode  none
attr source  packetReceivedFromUpper
attr title  "packets received from higher layer, sum(packetBytes)"
scalar scenarioPRJP1.node[34].lo0.lo 	passedUpPk:count 	0
attr interpolationmode  none
attr source  packetSentToUpper
attr title  "packets passed to higher layer, count"
scalar scenarioPRJP1.node[34].lo0.lo 	passedUpPk:sum(packetBytes) 	0
attr interpolationmode  none
attr source  packetSentToUpper
attr title  "packets passed to higher layer, sum(packetBytes)"
scalar scenarioPRJP1.node[86].app 	"Total sent" 	724
scalar scenarioPRJP1.node[86].app 	"Total received" 	45
scalar scenarioPRJP1.node[86].app 	"Total deleted" 	1
scalar scenarioPRJP1.node[86].app 	dropPk:count 	1
attr interpolationmode  none
attr source  dropPk
attr title  "packets dropped, count"
scalar scenarioPRJP1.node[86].app 	dropPk:sum(packetBytes) 	512
attr interpolationmode  none
attr source  dropPk
attr title  "packets dropped, sum(packetBytes)"
scalar scenarioPRJP1.node[86].app 	outOfOrderPk:count 	0
attr interpolationmode  none
attr source  outOfOrderPk
attr title  "packets received out of order, count"
scalar scenarioPRJP1.node[86].app 	outOfOrderPk:sum(packetBytes) 	0
attr interpolationmode  none
attr source  outOfOrderPk
attr title  "packets received out of order, sum(packetBytes)"
scalar scenarioPRJP1.node[86].app 	rcvdPk:count 	45
attr interpolationmode  none
attr source  rcvdPk
attr title  "packets received, count"
scalar scenarioPRJP1.node[86].app 	rcvdPk:sum(packetBytes) 	23040
attr interpolationmode  none
attr source  rcvdPk
attr title  "packets received, sum(packetBytes)"
statistic scenarioPRJP1.node[86].app 	endToEndDelay:histogram
field count 45
field mean 0.56545786732687
field stddev 1.7292210800355
field sum 25.445604029709
field sqrsum 145.95746090761
field min 0.000984022951
field max 9.247449861402
attr interpolationmode  none
attr source  messageAge(rcvdPk)
attr title  "delay, histogram"
attr unit  s
bin	-INF	0
bin	-4.6222488962745	0
bin	-4.0058178403778	0
bin	-3.389386784481	0
bin	-2.7729557285843	0
bin	-2.1565246726876	0
bin	-1.5400936167908	0
bin	-0.9236625608941	0
bin	-0.30723150499737	35
bin	0.30919955089937	4
bin	0.9256306067961	2
bin	1.5420616626928	1
bin	2.1584927185896	1
bin	2.7749237744863	0
bin	3.391354830383	0
bin	4.0077858862798	0
bin	4.6242169421765	0
bin	5.2406479980732	0
bin	5.85707905397	0
bin	6.4735101098667	1
bin	7.0899411657634	0
bin	7.7063722216602	0
bin	8.3228032775569	0
bin	8.9392343334536	1
bin	9.5556653893504	0
bin	10.172096445247	0
bin	10.788527501144	0
bin	11.404958557041	0
bin	12.021389612937	0
bin	12.637820668834	0
bin	13.254251724731	0
bin	13.870682780628	0
scalar scenarioPRJP1.node[86].app 	sentPk:count 	724
attr interpolationmode  none
attr source  sentPk
attr title  "packets sent, count"
scalar scenarioPRJP1.node[86].app 	sentPk:sum(packetBytes) 	370688
attr interpolationmode  none
attr source  sentPk
attr title  "packets sent, sum(packetBytes)"
scalar scenarioPRJP1.node[86].udp 	droppedPkBadChecksum:count 	0
attr interpolationmode  none
attr title  "packets dropped (checksum error), count"
scalar scenarioPRJP1.node[86].udp 	droppedPkWrongPort:count 	0
attr interpolationmode  none
attr title  "packets dropped (wrong port), count"
scalar scenarioPRJP1.node[86].udp 	passedUpPk:count 	46
attr interpolationmode  none
attr title  "packets passed up, count"
scalar scenarioPRJP1.node[86].udp 	rcvdPk:count 	46
attr interpolationmode  none
attr source  rcvdPk
attr title  "packets received, count"
scalar scenarioPRJP1.node[86].udp 	rcvdPk:sum(packetBytes) 	23920
attr interpolationmode  none
attr source  rcvdPk
attr title  "packets received, sum(packetBytes)"
scalar scenarioPRJP1.node[86].udp 	sentPk:count 	724
attr interpolationmode  none
attr source  sentPk
attr title  "packets sent, count"
scalar scenarioPRJP1.node[86].udp 	sentPk:sum(packetBytes) 	376480
attr interpolationmode  none
attr source  sentPk
attr title  "packets sent, sum(packetBytes)"
scalar scenarioPRJP1.node[86].networkLayer.arp 	failedARPResolution:count 	96
attr title  "ARP failed resolutions, count"
scalar scenarioPRJP1.node[86].networkLayer.arp 	completedARPResolution:count 	1556
attr title  "ARP completed resolutions, count"
scalar scenarioPRJP1.node[86].networkLayer.arp 	initiatedARPResolution:count 	142
attr title  "ARP initiated resolutions, count"
scalar scenarioPRJP1.node[86].networkLayer.arp 	sentReply:count 	25
attr title  "ARP replies sent, count"
scalar scenarioPRJP1.node[86].networkLayer.arp 	sentReq:count 	358
attr title  "ARP request sent, count"
scalar scenarioPRJP1.node[86].mobility 	startTime 	9.7
scalar scenarioPRJP1.node[86].mobility 	totalTime 	275.1
scalar scenarioPRJP1.node[86].mobility 	stopTime 	284.9
scalar scenarioPRJP1.node[86].mobility 	minSpeed 	2.4754325092906e-13
scalar scenarioPRJP1.node[86].mobility 	maxSpeed 	17.539053037835
scalar scenarioPRJP1.node[86].mobility 	totalDistance 	2202.5214209519
scalar scenarioPRJP1.node[86].mobility 	totalCO2Emission 	701.66534285581
scalar scenarioPRJP1.node[86].wlan.mgmt 	dataQueueLen:max 	2
attr interpolationmode  sample-hold
attr title  "data queue length, max"
scalar scenarioPRJP1.node[86].wlan.mgmt 	dataQueueLen:timeavg 	0
attr interpolationmode  sample-hold
attr title  "data queue length, timeavg"
scalar scenarioPRJP1.node[86].wlan.mgmt 	dropPkByQueue:count 	0
attr interpolationmode  none
attr source  dropPkByQueue
attr title  "packets dropped by queue, count"
scalar scenarioPRJP1.node[86].wlan.mgmt 	dropPkByQueue:sum(packetBytes) 	0
attr interpolationmode  none
attr source  dropPkByQueue
attr title  "packets dropped by queue, sum(packetBytes)"
scalar scenarioPRJP1.node[86].wlan.mac 	"number of received packets" 	737
scalar scenarioPRJP1.node[86].wlan.mac 	"number of collisions" 	33253
scalar scenarioPRJP1.node[86].wlan.mac 	"number of internal collisions" 	0
scalar scenarioPRJP1.node[86].wlan.mac 	"number of retry for AC 0" 	3363
scalar scenarioPRJP1.node[86].wlan.mac 	"number of retry for AC 1" 	0
scalar scenarioPRJP1.node[86].wlan.mac 	"number of retry for AC 2" 	0
scalar scenarioPRJP1.node[86].wlan.mac 	"number of retry for AC 3" 	0
scalar scenarioPRJP1.node[86].wlan.mac 	"sent and received bits" 	13007400
scalar scenarioPRJP1.node[86].wlan.mac 	"sent packet within AC 0" 	551
scalar scenarioPRJP1.node[86].wlan.mac 	"sent packet within AC 1" 	0
scalar scenarioPRJP1.node[86].wlan.mac 	"sent packet within AC 2" 	0
scalar scenarioPRJP1.node[86].wlan.mac 	"sent packet within AC 3" 	0
scalar scenarioPRJP1.node[86].wlan.mac 	"sent in TXOP " 	0
scalar scenarioPRJP1.node[86].wlan.mac 	"sentWithoutRetry AC 0" 	375
scalar scenarioPRJP1.node[86].wlan.mac 	"sentWithoutRetry AC 1" 	0
scalar scenarioPRJP1.node[86].wlan.mac 	"sentWithoutRetry AC 2" 	0
scalar scenarioPRJP1.node[86].wlan.mac 	"sentWithoutRetry AC 3" 	0
scalar scenarioPRJP1.node[86].wlan.mac 	"numGivenUp AC 0" 	498
scalar scenarioPRJP1.node[86].wlan.mac 	"numGivenUp AC 1" 	0
scalar scenarioPRJP1.node[86].wlan.mac 	"numGivenUp AC 2" 	0
scalar scenarioPRJP1.node[86].wlan.mac 	"numGivenUp AC 3" 	0
scalar scenarioPRJP1.node[86].wlan.mac 	"numDropped AC 0" 	0
scalar scenarioPRJP1.node[86].wlan.mac 	"numDropped AC 1" 	0
scalar scenarioPRJP1.node[86].wlan.mac 	"numDropped AC 2" 	0
scalar scenarioPRJP1.node[86].wlan.mac 	"numDropped AC 3" 	0
scalar scenarioPRJP1.node[86].wlan.mac 	rcvdPkFromLL:count 	79611
attr interpolationmode  none
attr source  packetReceivedFromLower
attr title  "packets received from lower layer, count"
scalar scenarioPRJP1.node[86].wlan.mac 	rcvdPkFromLL:sum(packetBytes) 	30562965
attr interpolationmode  none
attr source  packetReceivedFromLower
attr title  "packets received from lower layer, sum(packetBytes)"
scalar scenarioPRJP1.node[86].wlan.mac 	sentDownPk:count 	9741
attr interpolationmode  none
attr source  packetSentToLower
attr title  "packets sent to lower layer, count"
scalar scenarioPRJP1.node[86].wlan.mac 	sentDownPk:sum(packetBytes) 	3781829
attr interpolationmode  none
attr source  packetSentToLower
attr title  "packets sent to lower layer, sum(packetBytes)"
scalar scenarioPRJP1.node[86].wlan.mac 	rcvdPkFromHL:count 	5641
attr interpolationmode  none
attr source  packetReceivedFromUpper
attr title  "packets received from higher layer, count"
scalar scenarioPRJP1.node[86].wlan.mac 	rcvdPkFromHL:sum(packetBytes) 	1902222
attr interpolationmode  none
attr source  packetReceivedFromUpper
attr title  "packets received from higher layer, sum(packetBytes)"
scalar scenarioPRJP1.node[86].wlan.mac 	passedUpPk:count 	21206
attr interpolationmode  none
attr source  packetSentToUpper
attr title  "packets passed to higher layer, count"
scalar scenarioPRJP1.node[86].wlan.mac 	passedUpPk:sum(packetBytes) 	5996493
attr interpolationmode  none
attr source  packetSentToUpper
attr title  "packets passed to higher layer, sum(packetBytes)"
statistic scenarioPRJP1.node[86].wlan.radio 	radioChannel:histogram
field count 1
field mean 3
field stddev -nan
field sum 3
field sqrsum 9
field min 3
field max 3
attr interpolationmode  sample-hold
attr source  radioChannelChanged
attr title  "Radio channel, histogram"
bin	-INF	0
bin	2	0
bin	3	1
bin	4	0
scalar scenarioPRJP1.node[86].wlan.radio 	transmissionState:count 	38964
attr interpolationmode  sample-hold
attr source  transmissionStateChanged
attr title  "Radio transmission state, count"
scalar scenarioPRJP1.node[86].wlan.radio 	receptionState:count 	200081
attr interpolationmode  sample-hold
attr source  receptionStateChanged
attr title  "Radio reception state, count"
scalar scenarioPRJP1.node[86].wlan.radio 	radioMode:count 	19484
attr interpolationmode  sample-hold
attr source  radioModeChanged
attr title  "Radio mode, count"
statistic scenarioPRJP1.node[86].wlan.radio 	symbolErrorRate:histogram
field count 0
field mean -nan
field stddev -nan
field sum 0
field sqrsum 0
field min -nan
field max -nan
attr source  symbolErrorRate
attr title  "Symbol error rate, histogram"
bin	-INF	0
bin	-0.5	0
bin	-0.46666666666667	0
bin	-0.43333333333333	0
bin	-0.4	0
bin	-0.36666666666667	0
bin	-0.33333333333333	0
bin	-0.3	0
bin	-0.26666666666667	0
bin	-0.23333333333333	0
bin	-0.2	0
bin	-0.16666666666667	0
bin	-0.13333333333333	0
bin	-0.1	0
bin	-0.066666666666667	0
bin	-0.033333333333333	0
bin	0	0
bin	0.033333333333333	0
bin	0.066666666666667	0
bin	0.1	0
bin	0.13333333333333	0
bin	0.16666666666667	0
bin	0.2	0
bin	0.23333333333333	0
[...]
attr title  "packets received from higher layer, sum(packetBytes)"
scalar scenarioPRJP1.node[76].wlan.mac 	passedUpPk:count 	46475
attr interpolationmode  none
attr source  packetSentToUpper
attr title  "packets passed to higher layer, count"
scalar scenarioPRJP1.node[76].wlan.mac 	passedUpPk:sum(packetBytes) 	14762231
attr interpolationmode  none
attr source  packetSentToUpper
attr title  "packets passed to higher layer, sum(packetBytes)"
statistic scenarioPRJP1.node[76].wlan.radio 	radioChannel:histogram
field count 1
field mean 3
field stddev -nan
field sum 3
field sqrsum 9
field min 3
field max 3
attr interpolationmode  sample-hold
attr source  radioChannelChanged
attr title  "Radio channel, histogram"
bin	-INF	0
bin	2	0
bin	3	1
bin	4	0
scalar scenarioPRJP1.node[76].wlan.radio 	transmissionState:count 	142144
attr interpolationmode  sample-hold
attr source  transmissionStateChanged
attr title  "Radio transmission state, count"
scalar scenarioPRJP1.node[76].wlan.radio 	receptionState:count 	546679
attr interpolationmode  sample-hold
attr source  receptionStateChanged
attr title  "Radio reception state, count"
scalar scenarioPRJP1.node[76].wlan.radio 	radioMode:count 	71074
attr interpolationmode  sample-hold
attr source  radioModeChanged
attr title  "Radio mode, count"
statistic scenarioPRJP1.node[76].wlan.radio 	symbolErrorRate:histogram
field count 0
field mean -nan
field stddev -nan
field sum 0
field sqrsum 0
field min -nan
field max -nan
attr source  symbolErrorRate
attr title  "Symbol error rate, histogram"
bin	-INF	0
bin	-0.5	0
bin	-0.46666666666667	0
bin	-0.43333333333333	0
bin	-0.4	0
bin	-0.36666666666667	0
bin	-0.33333333333333	0
bin	-0.3	0
bin	-0.26666666666667	0
bin	-0.23333333333333	0
bin	-0.2	0
bin	-0.16666666666667	0
bin	-0.13333333333333	0
bin	-0.1	0
bin	-0.066666666666667	0
bin	-0.033333333333333	0
bin	0	0
bin	0.033333333333333	0
bin	0.066666666666667	0
bin	0.1	0
bin	0.13333333333333	0
bin	0.16666666666667	0
bin	0.2	0
bin	0.23333333333333	0
bin	0.26666666666667	0
bin	0.3	0
bin	0.33333333333333	0
bin	0.36666666666667	0
bin	0.4	0
bin	0.43333333333333	0
bin	0.46666666666667	0
bin	0.5	0
statistic scenarioPRJP1.node[76].wlan.radio 	bitErrorRate:histogram
field count 0
field mean -nan
field stddev -nan
field sum 0
field sqrsum 0
field min -nan
field max -nan
attr source  bitErrorRate
attr title  "Bit error rate, histogram"
bin	-INF	0
bin	-0.5	0
bin	-0.46666666666667	0
bin	-0.43333333333333	0
bin	-0.4	0
bin	-0.36666666666667	0
bin	-0.33333333333333	0
bin	-0.3	0
bin	-0.26666666666667	0
bin	-0.23333333333333	0
bin	-0.2	0
bin	-0.16666666666667	0
bin	-0.13333333333333	0
bin	-0.1	0
bin	-0.066666666666667	0
bin	-0.033333333333333	0
bin	0	0
bin	0.033333333333333	0
bin	0.066666666666667	0
bin	0.1	0
bin	0.13333333333333	0
bin	0.16666666666667	0
bin	0.2	0
bin	0.23333333333333	0
bin	0.26666666666667	0
bin	0.3	0
bin	0.33333333333333	0
bin	0.36666666666667	0
bin	0.4	0
bin	0.43333333333333	0
bin	0.46666666666667	0
bin	0.5	0
statistic scenarioPRJP1.node[76].wlan.radio 	packetErrorRate:histogram
field count 205082
field mean 0.46685614248304
field stddev 0.48895656036934
field sum 95743.791412707
field sqrsum 93729.038660873
field min 0
field max 1
attr source  packetErrorRate
attr title  "Packet error rate, histogram"
bin	-INF	0
bin	-0.5	0
bin	-0.43333333333333	0
bin	-0.36666666666667	0
bin	-0.3	0
bin	-0.23333333333333	0
bin	-0.16666666666667	0
bin	-0.1	0
bin	-0.033333333333333	101269
bin	0.033333333333333	3222
bin	0.1	1519
bin	0.16666666666667	1111
bin	0.23333333333333	840
bin	0.3	683
bin	0.36666666666667	667
bin	0.43333333333333	625
bin	0.5	524
bin	0.56666666666667	520
bin	0.63333333333333	573
bin	0.7	540
bin	0.76666666666667	622
bin	0.83333333333333	765
bin	0.9	1185
bin	0.96666666666667	90417
bin	1.0333333333333	0
bin	1.1	0
bin	1.1666666666667	0
bin	1.2333333333333	0
bin	1.3	0
bin	1.3666666666667	0
bin	1.4333333333333	0
bin	1.5	0
statistic scenarioPRJP1.node[76].wlan.radio 	minSNIR:histogram
field count 205082
field mean 435.60172489068
field stddev 8863.7504263533
field sum 89334072.944031
field sqrsum 16151322610306
field min 5.9702781540443e-05
field max 1064228.6864607
attr source  minSNIR
attr title  "Min SNIR, histogram"
bin	-INF	0
bin	-56359.783587857	0
bin	-48845.138716167	0
bin	-41330.493844477	0
bin	-33815.848972787	0
bin	-26301.204101097	0
bin	-18786.559229407	0
bin	-11271.914357717	0
bin	-3757.2694860275	202940
bin	3757.3753856624	1262
bin	11272.020257352	300
bin	18786.665129042	128
bin	26301.310000732	71
bin	33815.954872422	56
bin	41330.599744112	38
bin	48845.244615802	21
bin	56359.889487492	25
bin	63874.534359181	12
bin	71389.179230871	13
bin	78903.824102561	11
bin	86418.468974251	11
bin	93933.113845941	11
bin	101447.75871763	7
bin	108962.40358932	15
bin	116477.04846101	6
bin	123991.6933327	9
bin	131506.33820439	11
bin	139020.98307608	8
bin	146535.62794777	8
bin	154050.27281946	4
bin	161564.91769115	9
bin	169079.56256284	106
scalar scenarioPRJP1.node[76].lo0.lo 	droppedPkBitError:count 	0
attr interpolationmode  none
attr source  dropPkBitError
attr title  "packets dropped/bit error, count"
scalar scenarioPRJP1.node[76].lo0.lo 	droppedPkBitError:sum(packetBytes) 	0
attr interpolationmode  none
attr source  dropPkBitError
attr title  "packets dropped/bit error, sum(packetBytes)"
scalar scenarioPRJP1.node[76].lo0.lo 	rcvdPkFromHL:count 	0
attr interpolationmode  none
attr source  packetReceivedFromUpper
attr title  "packets received from higher layer, count"
scalar scenarioPRJP1.node[76].lo0.lo 	rcvdPkFromHL:sum(packetBytes) 	0
attr interpolationmode  none
attr source  packetReceivedFromUpper
attr title  "packets received from higher layer, sum(packetBytes)"
scalar scenarioPRJP1.node[76].lo0.lo 	passedUpPk:count 	0
attr interpolationmode  none
attr source  packetSentToUpper
attr title  "packets passed to higher layer, count"
scalar scenarioPRJP1.node[76].lo0.lo 	passedUpPk:sum(packetBytes) 	0
attr interpolationmode  none
attr source  packetSentToUpper
attr title  "packets passed to higher layer, sum(packetBytes)"
scalar scenarioPRJP1.node[94].app 	"Total sent" 	2617
scalar scenarioPRJP1.node[94].app 	"Total received" 	127
scalar scenarioPRJP1.node[94].app 	"Total deleted" 	0
scalar scenarioPRJP1.node[94].app 	dropPk:count 	0
attr interpolationmode  none
attr source  dropPk
attr title  "packets dropped, count"
scalar scenarioPRJP1.node[94].app 	dropPk:sum(packetBytes) 	0
attr interpolationmode  none
attr source  dropPk
attr title  "packets dropped, sum(packetBytes)"
scalar scenarioPRJP1.node[94].app 	outOfOrderPk:count 	0
attr interpolationmode  none
attr source  outOfOrderPk
attr title  "packets received out of order, count"
scalar scenarioPRJP1.node[94].app 	outOfOrderPk:sum(packetBytes) 	0
attr interpolationmode  none
attr source  outOfOrderPk
attr title  "packets received out of order, sum(packetBytes)"
scalar scenarioPRJP1.node[94].app 	rcvdPk:count 	127
attr interpolationmode  none
attr source  rcvdPk
attr title  "packets received, count"
scalar scenarioPRJP1.node[94].app 	rcvdPk:sum(packetBytes) 	65024
attr interpolationmode  none
attr source  rcvdPk
attr title  "packets received, sum(packetBytes)"
statistic scenarioPRJP1.node[94].app 	endToEndDelay:histogram
field count 127
field mean 0.63769547614259
field stddev 1.8997085996643
field sum 80.987325470109
field sqrsum 506.36573929561
field min 0.000958061467
field max 13.691931200599
attr interpolationmode  none
attr source  messageAge(rcvdPk)
attr title  "delay, histogram"
attr unit  s
bin	-INF	0
bin	-6.84448947461	0
bin	-5.9317596668229	0
bin	-5.0190298590359	0
bin	-4.1063000512488	0
bin	-3.1935702434617	0
bin	-2.2808404356747	0
bin	-1.3681106278876	0
bin	-0.45538082010053	97
bin	0.45734898768653	14
bin	1.3700787954736	10
bin	2.2828086032607	1
bin	3.1955384110477	1
bin	4.1082682188348	1
bin	5.0209980266219	0
bin	5.9337278344089	0
bin	6.846457642196	0
bin	7.7591874499831	0
bin	8.6719172577701	0
bin	9.5846470655572	1
bin	10.497376873344	1
bin	11.410106681131	0
bin	12.322836488918	0
bin	13.235566296705	1
bin	14.148296104493	0
bin	15.06102591228	0
bin	15.973755720067	0
bin	16.886485527854	0
bin	17.799215335641	0
bin	18.711945143428	0
bin	19.624674951215	0
bin	20.537404759002	0
scalar scenarioPRJP1.node[94].app 	sentPk:count 	2617
attr interpolationmode  none
attr source  sentPk
attr title  "packets sent, count"
scalar scenarioPRJP1.node[94].app 	sentPk:sum(packetBytes) 	1339904
attr interpolationmode  none
attr source  sentPk
attr title  "packets sent, sum(packetBytes)"
scalar scenarioPRJP1.node[94].udp 	droppedPkBadChecksum:count 	0
attr interpolationmode  none
attr title  "packets dropped (checksum error), count"
scalar scenarioPRJP1.node[94].udp 	droppedPkWrongPort:count 	0
attr interpolationmode  none
attr title  "packets dropped (wrong port), count"
scalar scenarioPRJP1.node[94].udp 	passedUpPk:count 	127
attr interpolationmode  none
attr title  "packets passed up, count"
scalar scenarioPRJP1.node[94].udp 	rcvdPk:count 	127
attr interpolationmode  none
attr source  rcvdPk
attr title  "packets received, count"
scalar scenarioPRJP1.node[94].udp 	rcvdPk:sum(packetBytes) 	66040
attr interpolationmode  none
attr source  rcvdPk
attr title  "packets received, sum(packetBytes)"
scalar scenarioPRJP1.node[94].udp 	sentPk:count 	2617
attr interpolationmode  none
attr source  sentPk
attr title  "packets sent, count"
scalar scenarioPRJP1.node[94].udp 	sentPk:sum(packetBytes) 	1360840
attr interpolationmode  none
attr source  sentPk
attr title  "packets sent, sum(packetBytes)"
scalar scenarioPRJP1.node[94].networkLayer.arp 	failedARPResolution:count 	303
attr title  "ARP failed resolutions, count"
scalar scenarioPRJP1.node[94].networkLayer.arp 	completedARPResolution:count 	3935
attr title  "ARP completed resolutions, count"
scalar scenarioPRJP1.node[94].networkLayer.arp 	initiatedARPResolution:count 	424
attr title  "ARP initiated resolutions, count"
scalar scenarioPRJP1.node[94].networkLayer.arp 	sentReply:count 	56
attr title  "ARP replies sent, count"
scalar scenarioPRJP1.node[94].networkLayer.arp 	sentReq:count 	1116
attr title  "ARP request sent, count"
scalar scenarioPRJP1.node[94].mobility 	startTime 	9.7
scalar scenarioPRJP1.node[94].mobility 	totalTime 	940.3
scalar scenarioPRJP1.node[94].mobility 	stopTime 	950
scalar scenarioPRJP1.node[94].mobility 	minSpeed 	2.475757575167e-13
scalar scenarioPRJP1.node[94].mobility 	maxSpeed 	21.099230171932
scalar scenarioPRJP1.node[94].mobility 	totalDistance 	11153.119485364
scalar scenarioPRJP1.node[94].mobility 	totalCO2Emission 	2964.8029563652
scalar scenarioPRJP1.node[94].wlan.mgmt 	dataQueueLen:max 	9
attr interpolationmode  sample-hold
attr title  "data queue length, max"
scalar scenarioPRJP1.node[94].wlan.mgmt 	dataQueueLen:timeavg 	0
attr interpolationmode  sample-hold
attr title  "data queue length, timeavg"
scalar scenarioPRJP1.node[94].wlan.mgmt 	dropPkByQueue:count 	0
attr interpolationmode  none
attr source  dropPkByQueue
attr title  "packets dropped by queue, count"
scalar scenarioPRJP1.node[94].wlan.mgmt 	dropPkByQueue:sum(packetBytes) 	0
attr interpolationmode  none
attr source  dropPkByQueue
attr title  "packets dropped by queue, sum(packetBytes)"
scalar scenarioPRJP1.node[94].wlan.mac 	"number of received packets" 	2711
scalar scenarioPRJP1.node[94].wlan.mac 	"number of collisions" 	114135
scalar scenarioPRJP1.node[94].wlan.mac 	"number of internal collisions" 	0
scalar scenarioPRJP1.node[94].wlan.mac 	"number of retry for AC 0" 	13998
scalar scenarioPRJP1.node[94].wlan.mac 	"number of retry for AC 1" 	0
scalar scenarioPRJP1.node[94].wlan.mac 	"number of retry for AC 2" 	0
scalar scenarioPRJP1.node[94].wlan.mac 	"number of retry for AC 3" 	0
scalar scenarioPRJP1.node[94].wlan.mac 	"sent and received bits" 	45194968
scalar scenarioPRJP1.node[94].wlan.mac 	"sent packet within AC 0" 	1688
scalar scenarioPRJP1.node[94].wlan.mac 	"sent packet within AC 1" 	4
scalar scenarioPRJP1.node[94].wlan.mac 	"sent packet within AC 2" 	0
scalar scenarioPRJP1.node[94].wlan.mac 	"sent packet within AC 3" 	0
scalar scenarioPRJP1.node[94].wlan.mac 	"sent in TXOP " 	0
scalar scenarioPRJP1.node[94].wlan.mac 	"sentWithoutRetry AC 0" 	1129
scalar scenarioPRJP1.node[94].wlan.mac 	"sentWithoutRetry AC 1" 	4
scalar scenarioPRJP1.node[94].wlan.mac 	"sentWithoutRetry AC 2" 	0
scalar scenarioPRJP1.node[94].wlan.mac 	"sentWithoutRetry AC 3" 	0
scalar scenarioPRJP1.node[94].wlan.mac 	"numGivenUp AC 0" 	2103
scalar scenarioPRJP1.node[94].wlan.mac 	"numGivenUp AC 1" 	0
scalar scenarioPRJP1.node[94].wlan.mac 	"numGivenUp AC 2" 	0
scalar scenarioPRJP1.node[94].wlan.mac 	"numGivenUp AC 3" 	0
scalar scenarioPRJP1.node[94].wlan.mac 	"numDropped AC 0" 	0
scalar scenarioPRJP1.node[94].wlan.mac 	"numDropped AC 1" 	0
scalar scenarioPRJP1.node[94].wlan.mac 	"numDropped AC 2" 	0
scalar scenarioPRJP1.node[94].wlan.mac 	"numDropped AC 3" 	0
scalar scenarioPRJP1.node[94].wlan.mac 	rcvdPkFromLL:count 	230429
attr interpolationmode  none
attr source  packetReceivedFromLower
attr title  "packets received from lower layer, count"
scalar scenarioPRJP1.node[94].wlan.mac 	rcvdPkFromLL:sum(packetBytes) 	91741383
attr interpolationmode  none
attr source  packetReceivedFromLower
attr title  "packets received from lower layer, sum(packetBytes)"
scalar scenarioPRJP1.node[94].wlan.mac 	sentDownPk:count 	36301
attr interpolationmode  none
attr source  packetSentToLower
attr title  "packets sent to lower layer, count"
scalar scenarioPRJP1.node[94].wlan.mac 	sentDownPk:sum(packetBytes) 	14622499
attr interpolationmode  none
attr source  packetSentToLower
attr title  "packets sent to lower layer, sum(packetBytes)"
scalar scenarioPRJP1.node[94].wlan.mac 	rcvdPkFromHL:count 	19593
attr interpolationmode  none
attr source  packetReceivedFromUpper
attr title  "packets received from higher layer, count"
scalar scenarioPRJP1.node[94].wlan.mac 	rcvdPkFromHL:sum(packetBytes) 	6814858
attr interpolationmode  none
attr source  packetReceivedFromUpper
attr title  "packets received from higher layer, sum(packetBytes)"
scalar scenarioPRJP1.node[94].wlan.mac 	passedUpPk:count 	53510
attr interpolationmode  none
attr source  packetSentToUpper
attr title  "packets passed to higher layer, count"
scalar scenarioPRJP1.node[94].wlan.mac 	passedUpPk:sum(packetBytes) 	16353953
attr interpolationmode  none
attr source  packetSentToUpper
attr title  "packets passed to higher layer, sum(packetBytes)"
statistic scenarioPRJP1.node[94].wlan.radio 	radioChannel:histogram
field count 1
field mean 3
field stddev -nan
field sum 3
field sqrsum 9
field min 3
field max 3
attr interpolationmode  sample-hold
attr source  radioChannelChanged
attr title  "Radio channel, histogram"
bin	-INF	0
bin	2	0
bin	3	1
bin	4	0
scalar scenarioPRJP1.node[94].wlan.radio 	transmissionState:count 	145204
attr interpolationmode  sample-hold
attr source  transmissionStateChanged
attr title  "Radio transmission state, count"
scalar scenarioPRJP1.node[94].wlan.radio 	receptionState:count 	608880
attr interpolationmode  sample-hold
attr source  receptionStateChanged
attr title  "Radio reception state, count"
scalar scenarioPRJP1.node[94].wlan.radio 	radioMode:count 	72604
attr interpolationmode  sample-hold
attr source  radioModeChanged
attr title  "Radio mode, count"
statistic scenarioPRJP1.node[94].wlan.radio 	symbolErrorRate:histogram
field count 0
field mean -nan
field stddev -nan
field sum 0
field sqrsum 0
field min -nan
field max -nan
attr source  symbolErrorRate
attr title  "Symbol error rate, histogram"
bin	-INF	0
bin	-0.5	0
bin	-0.46666666666667	0
bin	-0.43333333333333	0
bin	-0.4	0
bin	-0.36666666666667	0
bin	-0.33333333333333	0
bin	-0.3	0
bin	-0.26666666666667	0
bin	-0.23333333333333	0
bin	-0.2	0
bin	-0.16666666666667	0
bin	-0.13333333333333	0
bin	-0.1	0
bin	-0.066666666666667	0
bin	-0.033333333333333	0
bin	0	0
bin	0.033333333333333	0
bin	0.066666666666667	0
bin	0.1	0
bin	0.13333333333333	0
bin	0.16666666666667	0
bin	0.2	0
bin	0.23333333333333	0
bin	0.26666666666667	0
bin	0.3	0
bin	0.33333333333333	0
bin	0.36666666666667	0
bin	0.4	0
bin	0.43333333333333	0
bin	0.46666666666667	0
bin	0.5	0
statistic scenarioPRJP1.node[94].wlan.radio 	bitErrorRate:histogram
field count 0
field mean -nan
field stddev -nan
field sum 0
field sqrsum 0
field min -nan
field max -nan
attr source  bitErrorRate
attr title  "Bit error rate, histogram"
bin	-INF	0
bin	-0.5	0
bin	-0.46666666666667	0
bin	-0.43333333333333	0
bin	-0.4	0
bin	-0.36666666666667	0
bin	-0.33333333333333	0
bin	-0.3	0
bin	-0.26666666666667	0
bin	-0.23333333333333	0
bin	-0.2	0
bin	-0.16666666666667	0
bin	-0.13333333333333	0
bin	-0.1	0
bin	-0.066666666666667	0
bin	-0.033333333333333	0
bin	0	0
bin	0.033333333333333	0
bin	0.066666666666667	0
bin	0.1	0
bin	0.13333333333333	0
bin	0.16666666666667	0
bin	0.2	0
bin	0.23333333333333	0
bin	0.26666666666667	0
bin	0.3	0
bin	0.33333333333333	0
bin	0.36666666666667	0
bin	0.4	0
bin	0.43333333333333	0
bin	0.46666666666667	0
bin	0.5	0
statistic scenarioPRJP1.node[94].wlan.radio 	packetErrorRate:histogram
field count 230429
field mean 0.46508195964883
field stddev 0.48915948305929
field sum 107168.37087992
field sqrsum 104978.19646652
field min 0
field max 1
attr source  packetErrorRate
attr title  "Packet error rate, histogram"
bin	-INF	0
bin	-0.5	0
bin	-0.43333333333333	0
bin	-0.36666666666667	0
bin	-0.3	0
bin	-0.23333333333333	0
bin	-0.16666666666667	0
bin	-0.1	0
bin	-0.033333333333333	114558
bin	0.033333333333333	3431
bin	0.1	1650
bin	0.16666666666667	1182
bin	0.23333333333333	917
bin	0.3	772
bin	0.36666666666667	684
bin	0.43333333333333	668
bin	0.5	609
bin	0.56666666666667	583
bin	0.63333333333333	617
bin	0.7	612
bin	0.76666666666667	685
bin	0.83333333333333	803
bin	0.9	1289
bin	0.96666666666667	101369
bin	1.0333333333333	0
bin	1.1	0
bin	1.1666666666667	0
bin	1.2333333333333	0
bin	1.3	0
bin	1.3666666666667	0
bin	1.4333333333333	0
bin	1.5	0
statistic scenarioPRJP1.node[94].wlan.radio 	minSNIR:histogram
field count 230429
field mean 245.48317839797
field stddev 4113.9375583566
field sum 56566443.315066
field sqrsum 3913760702525
field min 0.00011232862783097
field max 524301.82795875
attr source  minSNIR
attr title  "Min SNIR, histogram"
bin	-INF	0
bin	-103831.84383661	0
bin	-89987.597842754	0
bin	-76143.351848899	0
bin	-62299.105855044	0
bin	-48454.859861188	0
bin	-34610.613867333	0
bin	-20766.367873477	0
bin	-6922.1218796218	229284
bin	6922.1241142337	678
bin	20766.370108089	162
bin	34610.616101945	95
bin	48454.8620958	54
bin	62299.108089655	32
bin	76143.354083511	39
bin	89987.600077366	16
bin	103831.84607122	17
bin	117676.09206508	11
bin	131520.33805893	8
bin	145364.58405279	7
bin	159208.83004664	2
bin	173053.0760405	3
bin	186897.32203435	3
bin	200741.56802821	1
bin	214585.81402207	1
bin	228430.06001592	2
bin	242274.30600978	1
bin	256118.55200363	3
bin	269962.79799749	2
bin	283807.04399134	1
bin	297651.2899852	1
bin	311495.53597905	6
scalar scenarioPRJP1.node[94].lo0.lo 	droppedPkBitError:count 	0
attr interpolationmode  none
attr source  dropPkBitError
attr title  "packets dropped/bit error, count"
scalar scenarioPRJP1.node[94].lo0.lo 	droppedPkBitError:sum(packetBytes) 	0
attr interpolationmode  none
attr source  dropPkBitError
attr title  "packets dropped/bit error, sum(packetBytes)"
scalar scenarioPRJP1.node[94].lo0.lo 	rcvdPkFromHL:count 	0
attr interpolationmode  none
attr source  packetReceivedFromUpper
attr title  "packets received from higher layer, count"
scalar scenarioPRJP1.node[94].lo0.lo 	rcvdPkFromHL:sum(packetBytes) 	0
attr interpolationmode  none
attr source  packetReceivedFromUpper
attr title  "packets received from higher layer, sum(packetBytes)"
scalar scenarioPRJP1.node[94].lo0.lo 	passedUpPk:count 	0
attr interpolationmode  none
attr source  packetSentToUpper
attr title  "packets passed to higher layer, count"
scalar scenarioPRJP1.node[94].lo0.lo 	passedUpPk:sum(packetBytes) 	0
attr interpolationmode  none
attr source  packetSentToUpper
attr title  "packets passed to higher layer, sum(packetBytes)"
