version 2
run DYMOUM-LNS-100n-9-20150818-18:47:01-24232
attr configname DYMOUM-LNS-100n
attr datetime 20150818-18:47:01
attr experiment DYMOUM-LNS-100n
attr inifile omnetpp.ini
attr iterationvars ""
attr iterationvars2 $repetition=9
attr measurement ""
attr network Prj_Part1_propag.scenarioPRJP1
attr processid 24232
attr repetition 9
attr replication #9
attr resultdir results
attr runnumber 9
attr seedset 9

scalar scenarioPRJP1.radioMedium.propagation 	"Arrival computation count" 	382592043
scalar scenarioPRJP1.radioMedium 	"transmission count" 	3864675
scalar scenarioPRJP1.radioMedium 	"radio frame send count" 	382592043
scalar scenarioPRJP1.radioMedium 	"reception computation count" 	378627754
scalar scenarioPRJP1.radioMedium 	"interference computation count" 	899997860
scalar scenarioPRJP1.radioMedium 	"reception decision computation count" 	27087151
scalar scenarioPRJP1.radioMedium 	"listening decision computation count" 	506516518
scalar scenarioPRJP1.radioMedium 	"reception cache hit" 	91.728424062688
attr unit  %
scalar scenarioPRJP1.radioMedium 	"interference cache hit" 	50
attr unit  %
scalar scenarioPRJP1.radioMedium 	"noise cache hit" 	0
attr unit  %
scalar scenarioPRJP1.radioMedium 	"snir cache hit" 	0
attr unit  %
scalar scenarioPRJP1.radioMedium 	"reception decision cache hit" 	0
attr unit  %
scalar scenarioPRJP1.node[0].app 	"Total sent" 	2613
scalar scenarioPRJP1.node[0].app 	"Total received" 	150
scalar scenarioPRJP1.node[0].app 	"Total deleted" 	0
scalar scenarioPRJP1.node[0].app 	dropPk:count 	0
attr interpolationmode  none
attr source  dropPk
attr title  "packets dropped, count"
scalar scenarioPRJP1.node[0].app 	dropPk:sum(packetBytes) 	0
attr interpolationmode  none
attr source  dropPk
attr title  "packets dropped, sum(packetBytes)"
scalar scenarioPRJP1.node[0].app 	outOfOrderPk:count 	0
attr interpolationmode  none
attr source  outOfOrderPk
attr title  "packets received out of order, count"
scalar scenarioPRJP1.node[0].app 	outOfOrderPk:sum(packetBytes) 	0
attr interpolationmode  none
attr source  outOfOrderPk
attr title  "packets received out of order, sum(packetBytes)"
scalar scenarioPRJP1.node[0].app 	rcvdPk:count 	150
attr interpolationmode  none
attr source  rcvdPk
attr title  "packets received, count"
scalar scenarioPRJP1.node[0].app 	rcvdPk:sum(packetBytes) 	76800
attr interpolationmode  none
attr source  rcvdPk
attr title  "packets received, sum(packetBytes)"
statistic scenarioPRJP1.node[0].app 	endToEndDelay:histogram
field count 150
field mean 0.56910572481925
field stddev 1.4897416446256
field sum 85.365858722887
field sqrsum 379.26239389536
field min 0.000945023908
field max 8.672372953673
attr interpolationmode  none
attr source  messageAge(rcvdPk)
attr title  "delay, histogram"
attr unit  s
bin	-INF	0
bin	-4.3347689409745	0
bin	-3.7566737456568	0
bin	-3.1785785503392	0
bin	-2.6004833550215	0
bin	-2.0223881597038	0
bin	-1.4442929643862	0
bin	-0.8661977690685	0
bin	-0.28810257375083	119
bin	0.28999262156683	8
bin	0.8680878168845	5
bin	1.4461830122022	5
bin	2.0242782075198	2
bin	2.6023734028375	1
bin	3.1804685981552	4
bin	3.7585637934728	0
bin	4.3366589887905	1
bin	4.9147541841082	0
bin	5.4928493794258	1
bin	6.0709445747435	1
bin	6.6490397700612	1
bin	7.2271349653788	0
bin	7.8052301606965	0
bin	8.3833253560142	2
bin	8.9614205513318	0
bin	9.5395157466495	0
bin	10.117610941967	0
bin	10.695706137285	0
bin	11.273801332603	0
bin	11.85189652792	0
bin	12.429991723238	0
bin	13.008086918555	0
scalar scenarioPRJP1.node[0].app 	sentPk:count 	2613
attr interpolationmode  none
attr source  sentPk
attr title  "packets sent, count"
scalar scenarioPRJP1.node[0].app 	sentPk:sum(packetBytes) 	1337856
attr interpolationmode  none
attr source  sentPk
attr title  "packets sent, sum(packetBytes)"
scalar scenarioPRJP1.node[0].udp 	droppedPkBadChecksum:count 	0
attr interpolationmode  none
attr title  "packets dropped (checksum error), count"
scalar scenarioPRJP1.node[0].udp 	droppedPkWrongPort:count 	0
attr interpolationmode  none
attr title  "packets dropped (wrong port), count"
scalar scenarioPRJP1.node[0].udp 	passedUpPk:count 	150
attr interpolationmode  none
attr title  "packets passed up, count"
scalar scenarioPRJP1.node[0].udp 	rcvdPk:count 	150
attr interpolationmode  none
attr source  rcvdPk
attr title  "packets received, count"
scalar scenarioPRJP1.node[0].udp 	rcvdPk:sum(packetBytes) 	78000
attr interpolationmode  none
attr source  rcvdPk
attr title  "packets received, sum(packetBytes)"
scalar scenarioPRJP1.node[0].udp 	sentPk:count 	2613
attr interpolationmode  none
attr source  sentPk
attr title  "packets sent, count"
scalar scenarioPRJP1.node[0].udp 	sentPk:sum(packetBytes) 	1358760
attr interpolationmode  none
attr source  sentPk
attr title  "packets sent, sum(packetBytes)"
scalar scenarioPRJP1.node[0].networkLayer.arp 	failedARPResolution:count 	272
attr title  "ARP failed resolutions, count"
scalar scenarioPRJP1.node[0].networkLayer.arp 	completedARPResolution:count 	4041
attr title  "ARP completed resolutions, count"
scalar scenarioPRJP1.node[0].networkLayer.arp 	initiatedARPResolution:count 	388
attr title  "ARP initiated resolutions, count"
scalar scenarioPRJP1.node[0].networkLayer.arp 	sentReply:count 	83
attr title  "ARP replies sent, count"
scalar scenarioPRJP1.node[0].networkLayer.arp 	sentReq:count 	1019
attr title  "ARP request sent, count"
scalar scenarioPRJP1.node[0].manetrouting 	"simulated time" 	950
scalar scenarioPRJP1.node[0].manetrouting 	"Dymo totalSend " 	3227452
scalar scenarioPRJP1.node[0].manetrouting 	"Dymo Rreq send" 	1680131
scalar scenarioPRJP1.node[0].manetrouting 	"Dymo Rreq rec" 	1514218
scalar scenarioPRJP1.node[0].manetrouting 	"Dymo Rrep send" 	16816
scalar scenarioPRJP1.node[0].manetrouting 	"Dymo Rrep rec" 	8460
scalar scenarioPRJP1.node[0].manetrouting 	"Dymo Rerr send" 	9469
scalar scenarioPRJP1.node[0].manetrouting 	"Dymo Rerr rec" 	38013
scalar scenarioPRJP1.node[0].mobility 	startTime 	0.1
scalar scenarioPRJP1.node[0].mobility 	totalTime 	949.9
scalar scenarioPRJP1.node[0].mobility 	stopTime 	950
scalar scenarioPRJP1.node[0].mobility 	minSpeed 	2.4755709381328e-13
scalar scenarioPRJP1.node[0].mobility 	maxSpeed 	17.888153059458
scalar scenarioPRJP1.node[0].mobility 	totalDistance 	9935.9680416266
scalar scenarioPRJP1.node[0].mobility 	totalCO2Emission 	2747.9398175455
scalar scenarioPRJP1.node[0].wlan.mgmt 	dataQueueLen:max 	9
attr interpolationmode  sample-hold
attr title  "data queue length, max"
scalar scenarioPRJP1.node[0].wlan.mgmt 	dataQueueLen:timeavg 	0
attr interpolationmode  sample-hold
attr title  "data queue length, timeavg"
scalar scenarioPRJP1.node[0].wlan.mgmt 	dropPkByQueue:count 	0
attr interpolationmode  none
attr source  dropPkByQueue
attr title  "packets dropped by queue, count"
scalar scenarioPRJP1.node[0].wlan.mgmt 	dropPkByQueue:sum(packetBytes) 	0
attr interpolationmode  none
attr source  dropPkByQueue
attr title  "packets dropped by queue, sum(packetBytes)"
scalar scenarioPRJP1.node[0].wlan.mac 	"number of received packets" 	3017
scalar scenarioPRJP1.node[0].wlan.mac 	"number of collisions" 	150749
scalar scenarioPRJP1.node[0].wlan.mac 	"number of internal collisions" 	0
scalar scenarioPRJP1.node[0].wlan.mac 	"number of retry for AC 0" 	15480
scalar scenarioPRJP1.node[0].wlan.mac 	"number of retry for AC 1" 	0
scalar scenarioPRJP1.node[0].wlan.mac 	"number of retry for AC 2" 	0
scalar scenarioPRJP1.node[0].wlan.mac 	"number of retry for AC 3" 	0
scalar scenarioPRJP1.node[0].wlan.mac 	"sent and received bits" 	47297440
scalar scenarioPRJP1.node[0].wlan.mac 	"sent packet within AC 0" 	2096
scalar scenarioPRJP1.node[0].wlan.mac 	"sent packet within AC 1" 	0
scalar scenarioPRJP1.node[0].wlan.mac 	"sent packet within AC 2" 	0
scalar scenarioPRJP1.node[0].wlan.mac 	"sent packet within AC 3" 	0
scalar scenarioPRJP1.node[0].wlan.mac 	"sent in TXOP " 	0
scalar scenarioPRJP1.node[0].wlan.mac 	"sentWithoutRetry AC 0" 	1369
scalar scenarioPRJP1.node[0].wlan.mac 	"sentWithoutRetry AC 1" 	0
scalar scenarioPRJP1.node[0].wlan.mac 	"sentWithoutRetry AC 2" 	0
scalar scenarioPRJP1.node[0].wlan.mac 	"sentWithoutRetry AC 3" 	0
scalar scenarioPRJP1.node[0].wlan.mac 	"numGivenUp AC 0" 	2292
scalar scenarioPRJP1.node[0].wlan.mac 	"numGivenUp AC 1" 	0
scalar scenarioPRJP1.node[0].wlan.mac 	"numGivenUp AC 2" 	0
scalar scenarioPRJP1.node[0].wlan.mac 	"numGivenUp AC 3" 	0
scalar scenarioPRJP1.node[0].wlan.mac 	"numDropped AC 0" 	0
scalar scenarioPRJP1.node[0].wlan.mac 	"numDropped AC 1" 	0
scalar scenarioPRJP1.node[0].wlan.mac 	"numDropped AC 2" 	0
scalar scenarioPRJP1.node[0].wlan.mac 	"numDropped AC 3" 	0
scalar scenarioPRJP1.node[0].wlan.mac 	rcvdPkFromLL:count 	294953
attr interpolationmode  none
attr source  packetReceivedFromLower
attr title  "packets received from lower layer, count"
scalar scenarioPRJP1.node[0].wlan.mac 	rcvdPkFromLL:sum(packetBytes) 	119406957
attr interpolationmode  none
attr source  packetReceivedFromLower
attr title  "packets received from lower layer, sum(packetBytes)"
scalar scenarioPRJP1.node[0].wlan.mac 	sentDownPk:count 	38698
attr interpolationmode  none
attr source  packetSentToLower
attr title  "packets sent to lower layer, count"
scalar scenarioPRJP1.node[0].wlan.mac 	sentDownPk:sum(packetBytes) 	15743032
attr interpolationmode  none
attr source  packetSentToLower
attr title  "packets sent to lower layer, sum(packetBytes)"
scalar scenarioPRJP1.node[0].wlan.mac 	rcvdPkFromHL:count 	20201
attr interpolationmode  none
attr source  packetReceivedFromUpper
attr title  "packets received from higher layer, count"
scalar scenarioPRJP1.node[0].wlan.mac 	rcvdPkFromHL:sum(packetBytes) 	7172367
attr interpolationmode  none
attr source  packetReceivedFromUpper
attr title  "packets received from higher layer, sum(packetBytes)"
scalar scenarioPRJP1.node[0].wlan.mac 	passedUpPk:count 	60572
attr interpolationmode  none
attr source  packetSentToUpper
attr title  "packets passed to higher layer, count"
scalar scenarioPRJP1.node[0].wlan.mac 	passedUpPk:sum(packetBytes) 	18568079
attr interpolationmode  none
attr source  packetSentToUpper
attr title  "packets passed to higher layer, sum(packetBytes)"
statistic scenarioPRJP1.node[0].wlan.radio 	radioChannel:histogram
field count 1
field mean 3
field stddev nan
field sum 3
field sqrsum 9
field min 3
field max 3
attr interpolationmode  sample-hold
attr source  radioChannelChanged
attr title  "Radio channel, histogram"
bin	-INF	0
bin	2	0
bin	3	1
bin	4	0
scalar scenarioPRJP1.node[0].wlan.radio 	transmissionState:count 	154792
attr interpolationmode  sample-hold
attr source  transmissionStateChanged
attr title  "Radio transmission state, count"
scalar scenarioPRJP1.node[0].wlan.radio 	receptionState:count 	773469
attr interpolationmode  sample-hold
attr source  receptionStateChanged
attr title  "Radio reception state, count"
scalar scenarioPRJP1.node[0].wlan.radio 	radioMode:count 	77398
attr interpolationmode  sample-hold
attr source  radioModeChanged
attr title  "Radio mode, count"
statistic scenarioPRJP1.node[0].wlan.radio 	symbolErrorRate:histogram
field count 0
field mean nan
field stddev nan
field sum 0
field sqrsum 0
field min nan
field max nan
attr source  symbolErrorRate
attr title  "Symbol error rate, histogram"
bin	-INF	0
bin	-0.5	0
bin	-0.46666666666667	0
bin	-0.43333333333333	0
bin	-0.4	0
bin	-0.36666666666667	0
bin	-0.33333333333333	0
bin	-0.3	0
bin	-0.26666666666667	0
bin	-0.23333333333333	0
bin	-0.2	0
bin	-0.16666666666667	0
bin	-0.13333333333333	0
bin	-0.1	0
bin	-0.066666666666667	0
bin	-0.033333333333333	0
bin	0	0
bin	0.033333333333333	0
bin	0.066666666666667	0
bin	0.1	0
bin	0.13333333333333	0
bin	0.16666666666667	0
bin	0.2	0
bin	0.23333333333333	0
bin	0.26666666666667	0
bin	0.3	0
bin	0.33333333333333	0
bin	0.36666666666667	0
bin	0.4	0
bin	0.43333333333333	0
bin	0.46666666666667	0
bin	0.5	0
statistic scenarioPRJP1.node[0].wlan.radio 	bitErrorRate:histogram
field count 0
field mean nan
field stddev nan
field sum 0
field sqrsum 0
field min nan
field max nan
attr source  bitErrorRate
attr title  "Bit error rate, histogram"
bin	-INF	0
bin	-0.5	0
bin	-0.46666666666667	0
bin	-0.43333333333333	0
bin	-0.4	0
bin	-0.36666666666667	0
bin	-0.33333333333333	0
bin	-0.3	0
bin	-0.26666666666667	0
bin	-0.23333333333333	0
bin	-0.2	0
bin	-0.16666666666667	0
bin	-0.13333333333333	0
bin	-0.1	0
bin	-0.066666666666667	0
bin	-0.033333333333333	0
bin	0	0
bin	0.033333333333333	0
bin	0.066666666666667	0
bin	0.1	0
bin	0.13333333333333	0
bin	0.16666666666667	0
bin	0.2	0
bin	0.23333333333333	0
bin	0.26666666666667	0
bin	0.3	0
bin	0.33333333333333	0
bin	0.36666666666667	0
bin	0.4	0
bin	0.43333333333333	0
bin	0.46666666666667	0
bin	0.5	0
statistic scenarioPRJP1.node[0].wlan.radio 	packetErrorRate:histogram
field count 294953
field mean 0.4827906537763
field stddev 0.49061607525328
field sum 142400.55170328
field sqrsum 139745.82097913
field min 0
field max 1
attr source  packetErrorRate
attr title  "Packet error rate, histogram"
bin	-INF	0
bin	-0.5	0
bin	-0.43333333333333	0
bin	-0.36666666666667	0
bin	-0.3	0
bin	-0.23333333333333	0
bin	-0.16666666666667	0
bin	-0.1	0
bin	-0.033333333333333	142048
bin	0.033333333333333	4033
bin	0.1	2096
bin	0.16666666666667	1403
bin	0.23333333333333	1133
bin	0.3	949
bin	0.36666666666667	869
bin	0.43333333333333	748
bin	0.5	728
bin	0.56666666666667	720
bin	0.63333333333333	727
bin	0.7	750
bin	0.76666666666667	820
bin	0.83333333333333	1006
bin	0.9	1584
bin	0.96666666666667	135339
bin	1.0333333333333	0
bin	1.1	0
bin	1.1666666666667	0
bin	1.2333333333333	0
bin	1.3	0
bin	1.3666666666667	0
bin	1.4333333333333	0
bin	1.5	0
statistic scenarioPRJP1.node[0].wlan.radio 	minSNIR:histogram
field count 294953
field mean 305.9911417903
field stddev 6021.4686573137
field sum 90253005.244475
field sqrsum 10722011245403
field min 6.7919718390506e-05
field max 1544493.2460998
attr source  minSNIR
attr title  "Min SNIR, histogram"
bin	-INF	0
bin	-1442.5863063808	0
bin	-1250.2092569247	0
bin	-1057.8322074686	0
bin	-865.45515801249	0
bin	-673.07810855639	0
bin	-480.70105910029	0
bin	-288.32400964419	0
bin	-95.946960188092	254791
bin	96.430089268007	19991
bin	288.80713872411	6417
bin	481.18418818021	3145
bin	673.56123763631	1864
bin	865.9382870924	1301
bin	1058.3153365485	977
bin	1250.6923860046	728
bin	1443.0694354607	542
bin	1635.4464849168	478
bin	1827.8235343729	403
bin	2020.200583829	318
bin	2212.5776332851	302
bin	2404.9546827412	220
bin	2597.3317321973	218
bin	2789.7087816534	199
bin	2982.0858311095	154
bin	3174.4628805656	139
bin	3366.8399300217	154
bin	3559.2169794778	130
bin	3751.5940289339	102
bin	3943.97107839	92
bin	4136.3481278461	97
bin	4328.7251773022	2191
scalar scenarioPRJP1.node[0].lo0.lo 	droppedPkBitError:count 	0
attr interpolationmode  none
attr source  dropPkBitError
attr title  "packets dropped/bit error, count"
scalar scenarioPRJP1.node[0].lo0.lo 	droppedPkBitError:sum(packetBytes) 	0
attr interpolationmode  none
attr source  dropPkBitError
attr title  "packets dropped/bit error, sum(packetBytes)"
scalar scenarioPRJP1.node[0].lo0.lo 	rcvdPkFromHL:count 	0
attr interpolationmode  none
attr source  packetReceivedFromUpper
attr title  "packets received from higher layer, count"
scalar scenarioPRJP1.node[0].lo0.lo 	rcvdPkFromHL:sum(packetBytes) 	0
attr interpolationmode  none
attr source  packetReceivedFromUpper
attr title  "packets received from higher layer, sum(packetBytes)"
scalar scenarioPRJP1.node[0].lo0.lo 	passedUpPk:count 	0
attr interpolationmode  none
attr source  packetSentToUpper
attr title  "packets passed to higher layer, count"
scalar scenarioPRJP1.node[0].lo0.lo 	passedUpPk:sum(packetBytes) 	0
attr interpolationmode  none
attr source  packetSentToUpper
attr title  "packets passed to higher layer, sum(packetBytes)"
scalar scenarioPRJP1.node[20].app 	"Total sent" 	2608
scalar scenarioPRJP1.node[20].app 	"Total received" 	155
scalar scenarioPRJP1.node[20].app 	"Total deleted" 	0
scalar scenarioPRJP1.node[20].app 	dropPk:count 	0
attr interpolationmode  none
attr source  dropPk
attr title  "packets dropped, count"
scalar scenarioPRJP1.node[20].app 	dropPk:sum(packetBytes) 	0
attr interpolationmode  none
attr source  dropPk
attr title  "packets dropped, sum(packetBytes)"
scalar scenarioPRJP1.node[20].app 	outOfOrderPk:count 	0
attr interpolationmode  none
attr source  outOfOrderPk
attr title  "packets received out of order, count"
scalar scenarioPRJP1.node[20].app 	outOfOrderPk:sum(packetBytes) 	0
attr interpolationmode  none
attr source  outOfOrderPk
attr title  "packets received out of order, sum(packetBytes)"
scalar scenarioPRJP1.node[20].app 	rcvdPk:count 	155
attr interpolationmode  none
attr source  rcvdPk
attr title  "packets received, count"
scalar scenarioPRJP1.node[20].app 	rcvdPk:sum(packetBytes) 	79360
attr interpolationmode  none
attr source  rcvdPk
attr title  "packets received, sum(packetBytes)"
statistic scenarioPRJP1.node[20].app 	endToEndDelay:histogram
field count 155
field mean 0.66168604806559
field stddev 1.4863034778824
field sum 102.56133745017
field sqrsum 408.06450242998
field min 0.000945019708
field max 8.275014073135
attr interpolationmode  none
attr source  messageAge(rcvdPk)
attr title  "delay, histogram"
attr unit  s
bin	-INF	0
bin	-4.1360894635715	0
bin	-3.5844848619401	0
bin	-3.0328802603087	0
bin	-2.4812756586773	0
bin	-1.9296710570459	0
bin	-1.3780664554145	0
bin	-0.8264618537831	0
bin	-0.2748572521517	115
bin	0.2767473494797	10
bin	0.8283519511111	6
bin	1.3799565527425	6
bin	1.9315611543739	2
bin	2.4831657560053	1
bin	3.0347703576367	4
bin	3.5863749592681	3
bin	4.1379795608995	2
bin	4.6895841625309	0
bin	5.2411887641623	4
bin	5.7927933657937	0
bin	6.3443979674251	0
bin	6.8960025690565	0
bin	7.4476071706879	1
bin	7.9992117723193	1
bin	8.5508163739507	0
bin	9.1024209755821	0
bin	9.6540255772135	0
bin	10.205630178845	0
bin	10.757234780476	0
bin	11.308839382108	0
bin	11.860443983739	0
bin	12.41204858537	0
scalar scenarioPRJP1.node[20].app 	sentPk:count 	2608
attr interpolationmode  none
attr source  sentPk
attr title  "packets sent, count"
scalar scenarioPRJP1.node[20].app 	sentPk:sum(packetBytes) 	1335296
attr interpolationmode  none
attr source  sentPk
attr title  "packets sent, sum(packetBytes)"
scalar scenarioPRJP1.node[20].udp 	droppedPkBadChecksum:count 	0
attr interpolationmode  none
attr title  "packets dropped (checksum error), count"
scalar scenarioPRJP1.node[20].udp 	droppedPkWrongPort:count 	0
attr interpolationmode  none
attr title  "packets dropped (wrong port), count"
scalar scenarioPRJP1.node[20].udp 	passedUpPk:count 	155
attr interpolationmode  none
attr title  "packets passed up, count"
scalar scenarioPRJP1.node[20].udp 	rcvdPk:count 	155
attr interpolationmode  none
attr source  rcvdPk
attr title  "packets received, count"
scalar scenarioPRJP1.node[20].udp 	rcvdPk:sum(packetBytes) 	80600
attr interpolationmode  none
attr source  rcvdPk
attr title  "packets received, sum(packetBytes)"
scalar scenarioPRJP1.node[20].udp 	sentPk:count 	2608
attr interpolationmode  none
attr source  sentPk
attr title  "packets sent, count"
scalar scenarioPRJP1.node[20].udp 	sentPk:sum(packetBytes) 	1356160
attr interpolationmode  none
attr source  sentPk
attr title  "packets sent, sum(packetBytes)"
scalar scenarioPRJP1.node[20].networkLayer.arp 	failedARPResolution:count 	275
attr title  "ARP failed resolutions, count"
scalar scenarioPRJP1.node[20].networkLayer.arp 	completedARPResolution:count 	4194
attr title  "ARP completed resolutions, count"
scalar scenarioPRJP1.node[20].networkLayer.arp 	initiatedARPResolution:count 	386
attr title  "ARP initiated resolutions, count"
scalar scenarioPRJP1.node[20].networkLayer.arp 	sentReply:count 	68
attr title  "ARP replies sent, count"
scalar scenarioPRJP1.node[20].networkLayer.arp 	sentReq:count 	1034
attr title  "ARP request sent, count"
scalar scenarioPRJP1.node[20].mobility 	startTime 	2.5
scalar scenarioPRJP1.node[20].mobility 	totalTime 	947.5
scalar scenarioPRJP1.node[20].mobility 	stopTime 	950
scalar scenarioPRJP1.node[20].mobility 	minSpeed 	2.4754467926207e-13
scalar scenarioPRJP1.node[20].mobility 	maxSpeed 	16.834238997654
scalar scenarioPRJP1.node[20].mobility 	totalDistance 	8961.4356845478
scalar scenarioPRJP1.node[20].mobility 	totalCO2Emission 	2314.451458963
scalar scenarioPRJP1.node[20].wlan.mgmt 	dataQueueLen:max 	11
attr interpolationmode  sample-hold
attr title  "data queue length, max"
scalar scenarioPRJP1.node[20].wlan.mgmt 	dataQueueLen:timeavg 	0
attr interpolationmode  sample-hold
attr title  "data queue length, timeavg"
scalar scenarioPRJP1.node[20].wlan.mgmt 	dropPkByQueue:count 	0
attr interpolationmode  none
attr source  dropPkByQueue
attr title  "packets dropped by queue, count"
scalar scenarioPRJP1.node[20].wlan.mgmt 	dropPkByQueue:sum(packetBytes) 	0
attr interpolationmode  none
attr source  dropPkByQueue
attr title  "packets dropped by queue, sum(packetBytes)"
scalar scenarioPRJP1.node[20].wlan.mac 	"number of received packets" 	2991
scalar scenarioPRJP1.node[20].wlan.mac 	"number of collisions" 	129542
scalar scenarioPRJP1.node[20].wlan.mac 	"number of internal collisions" 	0
scalar scenarioPRJP1.node[20].wlan.mac 	"number of retry for AC 0" 	16092
scalar scenarioPRJP1.node[20].wlan.mac 	"number of retry for AC 1" 	6
scalar scenarioPRJP1.node[20].wlan.mac 	"number of retry for AC 2" 	0
scalar scenarioPRJP1.node[20].wlan.mac 	"number of retry for AC 3" 	0
scalar scenarioPRJP1.node[20].wlan.mac 	"sent and received bits" 	47096280
scalar scenarioPRJP1.node[20].wlan.mac 	"sent packet within AC 0" 	1806
scalar scenarioPRJP1.node[20].wlan.mac 	"sent packet within AC 1" 	2
scalar scenarioPRJP1.node[20].wlan.mac 	"sent packet within AC 2" 	0
scalar scenarioPRJP1.node[20].wlan.mac 	"sent packet within AC 3" 	0
scalar scenarioPRJP1.node[20].wlan.mac 	"sent in TXOP " 	0
scalar scenarioPRJP1.node[20].wlan.mac 	"sentWithoutRetry AC 0" 	1128
scalar scenarioPRJP1.node[20].wlan.mac 	"sentWithoutRetry AC 1" 	2
scalar scenarioPRJP1.node[20].wlan.mac 	"sentWithoutRetry AC 2" 	0
scalar scenarioPRJP1.node[20].wlan.mac 	"sentWithoutRetry AC 3" 	0
scalar scenarioPRJP1.node[20].wlan.mac 	"numGivenUp AC 0" 	2385
scalar scenarioPRJP1.node[20].wlan.mac 	"numGivenUp AC 1" 	1
scalar scenarioPRJP1.node[20].wlan.mac 	"numGivenUp AC 2" 	0
scalar scenarioPRJP1.node[20].wlan.mac 	"numGivenUp AC 3" 	0
scalar scenarioPRJP1.node[20].wlan.mac 	"numDropped AC 0" 	0
scalar scenarioPRJP1.node[20].wlan.mac 	"numDropped AC 1" 	0
scalar scenarioPRJP1.node[20].wlan.mac 	"numDropped AC 2" 	0
scalar scenarioPRJP1.node[20].wlan.mac 	"numDropped AC 3" 	0
scalar scenarioPRJP1.node[20].wlan.mac 	rcvdPkFromLL:count 	254942
attr interpolationmode  none
attr source  packetReceivedFromLower
attr title  "packets received from lower layer, count"
scalar scenarioPRJP1.node[20].wlan.mac 	rcvdPkFromLL:sum(packetBytes) 	103334940
attr interpolationmode  none
attr source  packetReceivedFromLower
attr title  "packets received from lower layer, sum(packetBytes)"
scalar scenarioPRJP1.node[20].wlan.mac 	sentDownPk:count 	38525
attr interpolationmode  none
attr source  packetSentToLower
attr title  "packets sent to lower layer, count"
scalar scenarioPRJP1.node[20].wlan.mac 	sentDownPk:sum(packetBytes) 	16107151
attr interpolationmode  none
attr source  packetSentToLower
attr title  "packets sent to lower layer, sum(packetBytes)"
scalar scenarioPRJP1.node[20].wlan.mac 	rcvdPkFromHL:count 	19439
attr interpolationmode  none
attr source  packetReceivedFromUpper
attr title  "packets received from higher layer, count"
scalar scenarioPRJP1.node[20].wlan.mac 	rcvdPkFromHL:sum(packetBytes) 	7199236
attr interpolationmode  none
attr source  packetReceivedFromUpper
attr title  "packets received from higher layer, sum(packetBytes)"
scalar scenarioPRJP1.node[20].wlan.mac 	passedUpPk:count 	54966
attr interpolationmode  none
attr source  packetSentToUpper
attr title  "packets passed to higher layer, count"
scalar scenarioPRJP1.node[20].wlan.mac 	passedUpPk:sum(packetBytes) 	17256628
attr interpolationmode  none
attr source  packetSentToUpper
attr title  "packets passed to higher layer, sum(packetBytes)"
statistic scenarioPRJP1.node[20].wlan.radio 	radioChannel:histogram
field count 1
field mean 3
field stddev nan
field sum 3
field sqrsum 9
field min 3
field max 3
attr interpolationmode  sample-hold
attr source  radioChannelChanged
attr title  "Radio channel, histogram"
bin	-INF	0
bin	2	0
bin	3	1
bin	4	0
scalar scenarioPRJP1.node[20].wlan.radio 	transmissionState:count 	154100
attr interpolationmode  sample-hold
attr source  transmissionStateChanged
attr title  "Radio transmission state, count"
scalar scenarioPRJP1.node[20].wlan.radio 	receptionState:count 	673676
attr interpolationmode  sample-hold
attr source  receptionStateChanged
attr title  "Radio reception state, count"
scalar scenarioPRJP1.node[20].wlan.radio 	radioMode:count 	77052
attr interpolationmode  sample-hold
attr source  radioModeChanged
attr title  "Radio mode, count"
statistic scenarioPRJP1.node[20].wlan.radio 	symbolErrorRate:histogram
field count 0
field mean nan
field stddev nan
field sum 0
field sqrsum 0
field min nan
field max nan
attr source  symbolErrorRate
attr title  "Symbol error rate, histogram"
bin	-INF	0
bin	-0.5	0
bin	-0.46666666666667	0
bin	-0.43333333333333	0
bin	-0.4	0
bin	-0.36666666666667	0
bin	-0.33333333333333	0
bin	-0.3	0
bin	-0.26666666666667	0
bin	-0.23333333333333	0
bin	-0.2	0
bin	-0.16666666666667	0
bin	-0.13333333333333	0
bin	-0.1	0
bin	-0.066666666666667	0
bin	-0.033333333333333	0
bin	0	0
bin	0.033333333333333	0
bin	0.066666666666667	0
bin	0.1	0
bin	0.13333333333333	0
bin	0.16666666666667	0
bin	0.2	0
bin	0.23333333333333	0
bin	0.26666666666667	0
bin	0.3	0
bin	0.33333333333333	0
bin	0.36666666666667	0
bin	0.4	0
bin	0.43333333333333	0
bin	0.46666666666667	0
bin	0.5	0
statistic scenarioPRJP1.node[20].wlan.radio 	bitErrorRate:histogram
field count 0
field mean nan
field stddev nan
field sum 0
field sqrsum 0
field min nan
field max nan
attr source  bitErrorRate
attr title  "Bit error rate, histogram"
bin	-INF	0
bin	-0.5	0
bin	-0.46666666666667	0
bin	-0.43333333333333	0
bin	-0.4	0
bin	-0.36666666666667	0
bin	-0.33333333333333	0
bin	-0.3	0
bin	-0.26666666666667	0
bin	-0.23333333333333	0
bin	-0.2	0
bin	-0.16666666666667	0
bin	-0.13333333333333	0
bin	-0.1	0
bin	-0.066666666666667	0
bin	-0.033333333333333	0
bin	0	0
bin	0.033333333333333	0
bin	0.066666666666667	0
bin	0.1	0
bin	0.13333333333333	0
bin	0.16666666666667	0
bin	0.2	0
bin	0.23333333333333	0
bin	0.26666666666667	0
bin	0.3	0
bin	0.33333333333333	0
bin	0.36666666666667	0
bin	0.4	0
bin	0.43333333333333	0
bin	0.46666666666667	0
bin	0.5	0
statistic scenarioPRJP1.node[20].wlan.radio 	packetErrorRate:histogram
field count 254942
field mean 0.47713801253245
field stddev 0.48941683979151
field sum 121642.51919105
field sqrsum 119105.99262775
field min 0
field max 1
attr source  packetErrorRate
attr title  "Packet error rate, histogram"
bin	-INF	0
bin	-0.5	0
bin	-0.43333333333333	0
bin	-0.36666666666667	0
bin	-0.3	0
bin	-0.23333333333333	0
bin	-0.16666666666667	0
bin	-0.1	0
bin	-0.033333333333333	123192
bin	0.033333333333333	3958
bin	0.1	1892
bin	0.16666666666667	1404
bin	0.23333333333333	1049
bin	0.3	978
bin	0.36666666666667	823
bin	0.43333333333333	742
bin	0.5	689
bin	0.56666666666667	666
bin	0.63333333333333	726
bin	0.7	716
bin	0.76666666666667	753
bin	0.83333333333333	924
bin	0.9	1399
bin	0.96666666666667	115031
bin	1.0333333333333	0
bin	1.1	0
bin	1.1666666666667	0
bin	1.2333333333333	0
bin	1.3	0
bin	1.3666666666667	0
bin	1.4333333333333	0
bin	1.5	0
statistic scenarioPRJP1.node[20].wlan.radio 	minSNIR:histogram
field count 254942
field mean 317.3090241063
field stddev 7502.6303517774
field sum 80895397.223707
field sqrsum 14376160621108
field min 3.6602360983131e-05
field max 862813.56929683
attr source  minSNIR
attr title  "Min SNIR, histogram"
bin	-INF	0
bin	-7132.1213631121	0
bin	-6181.1633654767	0
bin	-5230.2053678413	0
bin	-4279.2473702059	0
bin	-3328.2893725705	0
bin	-2377.3313749351	0
bin	-1426.3733772997	0
bin	-475.41537966426	245137
bin	475.54261797114	5604
bin	1426.5006156065	1433
bin	2377.4586132419	702
bin	3328.4166108773	406
bin	4279.3746085127	234
bin	5230.3326061481	211
bin	6181.2906037835	141
bin	7132.2486014189	103
bin	8083.2065990543	76
bin	9034.1645966897	82
bin	9985.1225943251	52
bin	10936.080591961	52
bin	11887.038589596	36
bin	12837.996587231	41
bin	13788.954584867	31
bin	14739.912582502	31
bin	15690.870580138	17
bin	16641.828577773	23
bin	17592.786575408	22
bin	18543.744573044	18
bin	19494.702570679	9
bin	20445.660568315	19
bin	21396.61856595	462
scalar scenarioPRJP1.node[20].lo0.lo 	droppedPkBitError:count 	0
attr interpolationmode  none
attr source  dropPkBitError
attr title  "packets dropped/bit error, count"
scalar scenarioPRJP1.node[20].lo0.lo 	droppedPkBitError:sum(packetBytes) 	0
attr interpolationmode  none
attr source  dropPkBitError
attr title  "packets dropped/bit error, sum(packetBytes)"
scalar scenarioPRJP1.node[20].lo0.lo 	rcvdPkFromHL:count 	0
attr interpolationmode  none
attr source  packetReceivedFromUpper
attr title  "packets received from higher layer, count"
scalar scenarioPRJP1.node[20].lo0.lo 	rcvdPkFromHL:sum(packetBytes) 	0
attr interpolationmode  none
attr source  packetReceivedFromUpper
attr title  "packets received from higher layer, sum(packetBytes)"
scalar scenarioPRJP1.node[20].lo0.lo 	passedUpPk:count 	0
attr interpolationmode  none
attr source  packetSentToUpper
attr title  "packets passed to higher layer, count"
scalar scenarioPRJP1.node[20].lo0.lo 	passedUpPk:sum(packetBytes) 	0
attr interpolationmode  none
attr source  packetSentToUpper
attr title  "packets passed to higher layer, sum(packetBytes)"
scalar scenarioPRJP1.node[42].app 	"Total sent" 	2612
scalar scenarioPRJP1.node[42].app 	"Total received" 	140
scalar scenarioPRJP1.node[42].app 	"Total deleted" 	1
scalar scenarioPRJP1.node[42].app 	dropPk:count 	1
attr interpolationmode  none
attr source  dropPk
attr title  "packets dropped, count"
scalar scenarioPRJP1.node[42].app 	dropPk:sum(packetBytes) 	512
attr interpolationmode  none
attr source  dropPk
attr title  "packets dropped, sum(packetBytes)"
scalar scenarioPRJP1.node[42].app 	outOfOrderPk:count 	0
attr interpolationmode  none
attr source  outOfOrderPk
attr title  "packets received out of order, count"
scalar scenarioPRJP1.node[42].app 	outOfOrderPk:sum(packetBytes) 	0
attr interpolationmode  none
attr source  outOfOrderPk
attr title  "packets received out of order, sum(packetBytes)"
scalar scenarioPRJP1.node[42].app 	rcvdPk:count 	140
attr interpolationmode  none
attr source  rcvdPk
attr title  "packets received, count"
scalar scenarioPRJP1.node[42].app 	rcvdPk:sum(packetBytes) 	71680
attr interpolationmode  none
attr source  rcvdPk
attr title  "packets received, sum(packetBytes)"
statistic scenarioPRJP1.node[42].app 	endToEndDelay:histogram
field count 140
field mean 0.65113839956306
field stddev 1.9234545109527
field sum 91.159375938829
field sqrsum 573.61250869687
field min 0.000925246239
field max 17.421745644141
attr interpolationmode  none
attr source  messageAge(rcvdPk)
attr title  "delay, histogram"
attr unit  s
bin	-INF	0
bin	-4.585010522862	0
bin	-3.9735524203152	0
bin	-3.3620943177684	0
bin	-2.7506362152216	0
bin	-2.1391781126748	0
bin	-1.527720010128	0
bin	-0.9162619075812	0
bin	-0.3048038050344	104
bin	0.3066542975124	14
bin	0.9181124000592	6
bin	1.529570502606	5
bin	2.1410286051528	1
bin	2.7524867076996	1
bin	3.3639448102464	2
bin	3.9754029127932	2
bin	4.58686101534	1
bin	5.1983191178868	2
bin	5.8097772204336	0
bin	6.4212353229804	0
bin	7.0326934255272	0
bin	7.644151528074	0
bin	8.2556096306208	0
bin	8.8670677331676	1
bin	9.4785258357144	0
bin	10.089983938261	0
bin	10.701442040808	0
bin	11.312900143355	0
bin	11.924358245902	0
bin	12.535816348448	0
bin	13.147274450995	0
bin	13.758732553542	1
scalar scenarioPRJP1.node[42].app 	sentPk:count 	2612
attr interpolationmode  none
attr source  sentPk
attr title  "packets sent, count"
scalar scenarioPRJP1.node[42].app 	sentPk:sum(packetBytes) 	1337344
attr interpolationmode  none
attr source  sentPk
attr title  "packets sent, sum(packetBytes)"
scalar scenarioPRJP1.node[42].udp 	droppedPkBadChecksum:count 	0
attr interpolationmode  none
attr title  "packets dropped (checksum error), count"
scalar scenarioPRJP1.node[42].udp 	droppedPkWrongPort:count 	0
attr interpolationmode  none
attr title  "packets dropped (wrong port), count"
scalar scenarioPRJP1.node[42].udp 	passedUpPk:count 	141
attr interpolationmode  none
attr title  "packets passed up, count"
scalar scenarioPRJP1.node[42].udp 	rcvdPk:count 	141
attr interpolationmode  none
attr source  rcvdPk
attr title  "packets received, count"
scalar scenarioPRJP1.node[42].udp 	rcvdPk:sum(packetBytes) 	73320
attr interpolationmode  none
attr source  rcvdPk
attr title  "packets received, sum(packetBytes)"
scalar scenarioPRJP1.node[42].udp 	sentPk:count 	2612
attr interpolationmode  none
attr source  sentPk
attr title  "packets sent, count"
scalar scenarioPRJP1.node[42].udp 	sentPk:sum(packetBytes) 	1358240
attr interpolationmode  none
attr source  sentPk
attr title  "packets sent, sum(packetBytes)"
scalar scenarioPRJP1.node[42].networkLayer.arp 	failedARPResolution:count 	303
attr title  "ARP failed resolutions, count"
scalar scenarioPRJP1.node[42].networkLayer.arp 	completedARPResolution:count 	3887
attr title  "ARP completed resolutions, count"
scalar scenarioPRJP1.node[42].networkLayer.arp 	initiatedARPResolution:count 	402
attr title  "ARP initiated resolutions, count"
scalar scenarioPRJP1.node[42].networkLayer.arp 	sentReply:count 	60
attr title  "ARP replies sent, count"
scalar scenarioPRJP1.node[42].networkLayer.arp 	sentReq:count 	1089
attr title  "ARP request sent, count"
scalar scenarioPRJP1.node[42].mobility 	startTime 	4.9
scalar scenarioPRJP1.node[42].mobility 	totalTime 	945.1
scalar scenarioPRJP1.node[42].mobility 	stopTime 	950
scalar scenarioPRJP1.node[42].mobility 	minSpeed 	2.4754544773467e-13
scalar scenarioPRJP1.node[42].mobility 	maxSpeed 	15.784431655405
scalar scenarioPRJP1.node[42].mobility 	totalDistance 	8797.4779913253
scalar scenarioPRJP1.node[42].mobility 	totalCO2Emission 	2249.2490176471
scalar scenarioPRJP1.node[42].wlan.mgmt 	dataQueueLen:max 	7
attr interpolationmode  sample-hold
attr title  "data queue length, max"
scalar scenarioPRJP1.node[42].wlan.mgmt 	dataQueueLen:timeavg 	0
attr interpolationmode  sample-hold
attr title  "data queue length, timeavg"
scalar scenarioPRJP1.node[42].wlan.mgmt 	dropPkByQueue:count 	0
attr interpolationmode  none
attr source  dropPkByQueue
attr title  "packets dropped by queue, count"
scalar scenarioPRJP1.node[42].wlan.mgmt 	dropPkByQueue:sum(packetBytes) 	0
attr interpolationmode  none
attr source  dropPkByQueue
attr title  "packets dropped by queue, sum(packetBytes)"
scalar scenarioPRJP1.node[42].wlan.mac 	"number of received packets" 	3187
scalar scenarioPRJP1.node[42].wlan.mac 	"number of collisions" 	125085
scalar scenarioPRJP1.node[42].wlan.mac 	"number of internal collisions" 	0
scalar scenarioPRJP1.node[42].wlan.mac 	"number of retry for AC 0" 	16129
scalar scenarioPRJP1.node[42].wlan.mac 	"number of retry for AC 1" 	6
scalar scenarioPRJP1.node[42].wlan.mac 	"number of retry for AC 2" 	0
scalar scenarioPRJP1.node[42].wlan.mac 	"number of retry for AC 3" 	0
scalar scenarioPRJP1.node[42].wlan.mac 	"sent and received bits" 	48147536
scalar scenarioPRJP1.node[42].wlan.mac 	"sent packet within AC 0" 	1973
scalar scenarioPRJP1.node[42].wlan.mac 	"sent packet within AC 1" 	2
scalar scenarioPRJP1.node[42].wlan.mac 	"sent packet within AC 2" 	0
scalar scenarioPRJP1.node[42].wlan.mac 	"sent packet within AC 3" 	0
scalar scenarioPRJP1.node[42].wlan.mac 	"sent in TXOP " 	0
scalar scenarioPRJP1.node[42].wlan.mac 	"sentWithoutRetry AC 0" 	1320
scalar scenarioPRJP1.node[42].wlan.mac 	"sentWithoutRetry AC 1" 	2
scalar scenarioPRJP1.node[42].wlan.mac 	"sentWithoutRetry AC 2" 	0
scalar scenarioPRJP1.node[42].wlan.mac 	"sentWithoutRetry AC 3" 	0
scalar scenarioPRJP1.node[42].wlan.mac 	"numGivenUp AC 0" 	2424
scalar scenarioPRJP1.node[42].wlan.mac 	"numGivenUp AC 1" 	1
scalar scenarioPRJP1.node[42].wlan.mac 	"numGivenUp AC 2" 	0
scalar scenarioPRJP1.node[42].wlan.mac 	"numGivenUp AC 3" 	0
scalar scenarioPRJP1.node[42].wlan.mac 	"numDropped AC 0" 	0
scalar scenarioPRJP1.node[42].wlan.mac 	"numDropped AC 1" 	0
scalar scenarioPRJP1.node[42].wlan.mac 	"numDropped AC 2" 	0
scalar scenarioPRJP1.node[42].wlan.mac 	"numDropped AC 3" 	0
scalar scenarioPRJP1.node[42].wlan.mac 	rcvdPkFromLL:count 	249473
attr interpolationmode  none
attr source  packetReceivedFromLower
attr title  "packets received from lower layer, count"
scalar scenarioPRJP1.node[42].wlan.mac 	rcvdPkFromLL:sum(packetBytes) 	102063591
attr interpolationmode  none
attr source  packetReceivedFromLower
attr title  "packets received from lower layer, sum(packetBytes)"
scalar scenarioPRJP1.node[42].wlan.mac 	sentDownPk:count 	39125
attr interpolationmode  none
attr source  packetSentToLower
attr title  "packets sent to lower layer, count"
scalar scenarioPRJP1.node[42].wlan.mac 	sentDownPk:sum(packetBytes) 	16280644
attr interpolationmode  none
attr source  packetSentToLower
attr title  "packets sent to lower layer, sum(packetBytes)"
scalar scenarioPRJP1.node[42].wlan.mac 	rcvdPkFromHL:count 	19803
attr interpolationmode  none
attr source  packetReceivedFromUpper
attr title  "packets received from higher layer, count"
scalar scenarioPRJP1.node[42].wlan.mac 	rcvdPkFromHL:sum(packetBytes) 	7349969
attr interpolationmode  none
attr source  packetReceivedFromUpper
attr title  "packets received from higher layer, sum(packetBytes)"
scalar scenarioPRJP1.node[42].wlan.mac 	passedUpPk:count 	53229
attr interpolationmode  none
attr source  packetSentToUpper
attr title  "packets passed to higher layer, count"
scalar scenarioPRJP1.node[42].wlan.mac 	passedUpPk:sum(packetBytes) 	17167785
attr interpolationmode  none
attr source  packetSentToUpper
attr title  "packets passed to higher layer, sum(packetBytes)"
statistic scenarioPRJP1.node[42].wlan.radio 	radioChannel:histogram
field count 1
field mean 3
field stddev nan
field sum 3
field sqrsum 9
field min 3
field max 3
attr interpolationmode  sample-hold
attr source  radioChannelChanged
attr title  "Radio channel, histogram"
bin	-INF	0
bin	2	0
bin	3	1
bin	4	0
scalar scenarioPRJP1.node[42].wlan.radio 	transmissionState:count 	156500
attr interpolationmode  sample-hold
attr source  transmissionStateChanged
attr title  "Radio transmission state, count"
scalar scenarioPRJP1.node[42].wlan.radio 	receptionState:count 	665643
attr interpolationmode  sample-hold
attr source  receptionStateChanged
attr title  "Radio reception state, count"
scalar scenarioPRJP1.node[42].wlan.radio 	radioMode:count 	78252
attr interpolationmode  sample-hold
attr source  radioModeChanged
attr title  "Radio mode, count"
statistic scenarioPRJP1.node[42].wlan.radio 	symbolErrorRate:histogram
field count 0
field mean nan
field stddev nan
field sum 0
field sqrsum 0
field min nan
field max nan
attr source  symbolErrorRate
attr title  "Symbol error rate, histogram"
bin	-INF	0
bin	-0.5	0
bin	-0.46666666666667	0
bin	-0.43333333333333	0
bin	-0.4	0
bin	-0.36666666666667	0
bin	-0.33333333333333	0
bin	-0.3	0
bin	-0.26666666666667	0
bin	-0.23333333333333	0
bin	-0.2	0
bin	-0.16666666666667	0
bin	-0.13333333333333	0
bin	-0.1	0
bin	-0.066666666666667	0
bin	-0.033333333333333	0
bin	0	0
bin	0.033333333333333	0
bin	0.066666666666667	0
bin	0.1	0
bin	0.13333333333333	0
bin	0.16666666666667	0
bin	0.2	0
bin	0.23333333333333	0
bin	0.26666666666667	0
bin	0.3	0
bin	0.33333333333333	0
bin	0.36666666666667	0
bin	0.4	0
bin	0.43333333333333	0
bin	0.46666666666667	0
bin	0.5	0
statistic scenarioPRJP1.node[42].wlan.radio 	bitErrorRate:histogram
field count 0
field mean nan
field stddev nan
field sum 0
field sqrsum 0
field min nan
field max nan
attr source  bitErrorRate
attr title  "Bit error rate, histogram"
bin	-INF	0
bin	-0.5	0
bin	-0.46666666666667	0
bin	-0.43333333333333	0
bin	-0.4	0
bin	-0.36666666666667	0
bin	-0.33333333333333	0
bin	-0.3	0
bin	-0.26666666666667	0
bin	-0.23333333333333	0
bin	-0.2	0
bin	-0.16666666666667	0
bin	-0.13333333333333	0
bin	-0.1	0
bin	-0.066666666666667	0
bin	-0.033333333333333	0
bin	0	0
bin	0.033333333333333	0
bin	0.066666666666667	0
bin	0.1	0
bin	0.13333333333333	0
bin	0.16666666666667	0
bin	0.2	0
bin	0.23333333333333	0
bin	0.26666666666667	0
bin	0.3	0
bin	0.33333333333333	0
bin	0.36666666666667	0
bin	0.4	0
bin	0.43333333333333	0
bin	0.46666666666667	0
bin	0.5	0
statistic scenarioPRJP1.node[42].wlan.radio 	packetErrorRate:histogram
field count 249473
field mean 0.47287384985703
field stddev 0.4896919887084
field sum 117969.25794538
field sqrsum 115607.52464798
field min 0
field max 1
attr source  packetErrorRate
attr title  "Packet error rate, histogram"
bin	-INF	0
bin	-0.5	0
bin	-0.43333333333333	0
bin	-0.36666666666667	0
bin	-0.3	0
bin	-0.23333333333333	0
bin	-0.16666666666667	0
bin	-0.1	0
bin	-0.033333333333333	122277
bin	0.033333333333333	3468
bin	0.1	1795
bin	0.16666666666667	1320
bin	0.23333333333333	991
bin	0.3	835
bin	0.36666666666667	777
bin	0.43333333333333	711
bin	0.5	596
bin	0.56666666666667	658
bin	0.63333333333333	660
bin	0.7	699
bin	0.76666666666667	743
bin	0.83333333333333	848
bin	0.9	1422
bin	0.96666666666667	111673
bin	1.0333333333333	0
bin	1.1	0
bin	1.1666666666667	0
bin	1.2333333333333	0
bin	1.3	0
bin	1.3666666666667	0
bin	1.4333333333333	0
bin	1.5	0
statistic scenarioPRJP1.node[42].wlan.radio 	minSNIR:histogram
field count 249473
field mean 256.46900645249
field stddev 4434.2898804311
field sum 63982092.446721
field sqrsum 4921759084283.4
field min 0.00012934351315055
field max 740881.7054228
attr source  minSNIR
attr title  "Min SNIR, histogram"
bin	-INF	0
bin	-4585.5320705943	0
bin	-3974.1070622358	0
bin	-3362.6820538773	0
bin	-2751.2570455188	0
bin	-2139.8320371602	0
bin	-1528.4070288017	0
bin	-916.98202044321	0
bin	-305.55701208469	233908
bin	305.86799627382	9389
bin	917.29300463234	2253
bin	1528.7180129909	1016
bin	2140.1430213494	553
bin	2751.5680297079	343
bin	3362.9930380664	251
bin	3974.4180464249	170
bin	4585.8430547834	131
bin	5197.268063142	127
bin	5808.6930715005	83
bin	6420.118079859	75
bin	7031.5430882175	70
bin	7642.968096576	50
bin	8254.3931049346	59
bin	8865.8181132931	43
bin	9477.2431216516	43
bin	10088.66813001	41
bin	10700.093138369	25
bin	11311.518146727	29
bin	11922.943155086	34
bin	12534.368163444	25
bin	13145.793171803	30
bin	13757.218180161	725
scalar scenarioPRJP1.node[42].lo0.lo 	droppedPkBitError:count 	0
attr interpolationmode  none
attr source  dropPkBitError
attr title  "packets dropped/bit error, count"
scalar scenarioPRJP1.node[42].lo0.lo 	droppedPkBitError:sum(packetBytes) 	0
attr interpolationmode  none
attr source  dropPkBitError
attr title  "packets dropped/bit error, sum(packetBytes)"
scalar scenarioPRJP1.node[42].lo0.lo 	rcvdPkFromHL:count 	0
attr interpolationmode  none
attr source  packetReceivedFromUpper
attr title  "packets received from higher layer, count"
scalar scenarioPRJP1.node[42].lo0.lo 	rcvdPkFromHL:sum(packetBytes) 	0
attr interpolationmode  none
attr source  packetReceivedFromUpper
attr title  "packets received from higher layer, sum(packetBytes)"
scalar scenarioPRJP1.node[42].lo0.lo 	passedUpPk:count 	0
attr interpolationmode  none
attr source  packetSentToUpper
attr title  "packets passed to higher layer, count"
scalar scenarioPRJP1.node[42].lo0.lo 	passedUpPk:sum(packetBytes) 	0
attr interpolationmode  none
attr source  packetSentToUpper
attr title  "packets passed to higher layer, sum(packetBytes)"
scalar scenarioPRJP1.node[61].app 	"Total sent" 	2628
scalar scenarioPRJP1.node[61].app 	"Total received" 	156
scalar scenarioPRJP1.node[61].app 	"Total deleted" 	0
scalar scenarioPRJP1.node[61].app 	dropPk:count 	0
attr interpolationmode  none
attr source  dropPk
attr title  "packets dropped, count"
scalar scenarioPRJP1.node[61].app 	dropPk:sum(packetBytes) 	0
attr interpolationmode  none
attr source  dropPk
attr title  "packets dropped, sum(packetBytes)"
scalar scenarioPRJP1.node[61].app 	outOfOrderPk:count 	0
attr interpolationmode  none
attr source  outOfOrderPk
attr title  "packets received out of order, count"
scalar scenarioPRJP1.node[61].app 	outOfOrderPk:sum(packetBytes) 	0
attr interpolationmode  none
attr source  outOfOrderPk
attr title  "packets received out of order, sum(packetBytes)"
scalar scenarioPRJP1.node[61].app 	rcvdPk:count 	156
attr interpolationmode  none
attr source  rcvdPk
attr title  "packets received, count"
scalar scenarioPRJP1.node[61].app 	rcvdPk:sum(packetBytes) 	79872
attr interpolationmode  none
attr source  rcvdPk
attr title  "packets received, sum(packetBytes)"
statistic scenarioPRJP1.node[61].app 	endToEndDelay:histogram
field count 156
field mean 0.91065919787253
field stddev 2.6570709978042
field sum 142.06283486811
field sqrsum 1223.6749017912
field min 0.000945068821
field max 18.836521102766
attr interpolationmode  none
attr source  messageAge(rcvdPk)
attr title  "delay, histogram"
attr unit  s
bin	-INF	0
bin	-9.4168429481515	0
bin	-8.1611378792218	0
bin	-6.9054328102922	0
bin	-5.6497277413625	0
bin	-4.3940226724328	0
bin	-3.1383176035032	0
bin	-1.8826125345735	0
bin	-0.62690746564383	125
bin	0.62879760328583	12
bin	1.8845026722155	5
bin	3.1402077411452	5
bin	4.3959128100748	0
bin	5.6516178790045	2
bin	6.9073229479342	1
bin	8.1630280168638	2
bin	9.4187330857935	1
bin	10.674438154723	0
bin	11.930143223653	1
bin	13.185848292583	1
bin	14.441553361512	0
bin	15.697258430442	0
bin	16.952963499371	0
bin	18.208668568301	1
bin	19.464373637231	0
bin	20.72007870616	0
bin	21.97578377509	0
bin	23.23148884402	0
bin	24.48719391295	0
bin	25.742898981879	0
bin	26.998604050809	0
bin	28.254309119739	0
scalar scenarioPRJP1.node[61].app 	sentPk:count 	2628
attr interpolationmode  none
attr source  sentPk
attr title  "packets sent, count"
scalar scenarioPRJP1.node[61].app 	sentPk:sum(packetBytes) 	1345536
attr interpolationmode  none
attr source  sentPk
attr title  "packets sent, sum(packetBytes)"
scalar scenarioPRJP1.node[61].udp 	droppedPkBadChecksum:count 	0
attr interpolationmode  none
attr title  "packets dropped (checksum error), count"
scalar scenarioPRJP1.node[61].udp 	droppedPkWrongPort:count 	0
attr interpolationmode  none
attr title  "packets dropped (wrong port), count"
scalar scenarioPRJP1.node[61].udp 	passedUpPk:count 	156
attr interpolationmode  none
attr title  "packets passed up, count"
scalar scenarioPRJP1.node[61].udp 	rcvdPk:count 	156
attr interpolationmode  none
attr source  rcvdPk
attr title  "packets received, count"
scalar scenarioPRJP1.node[61].udp 	rcvdPk:sum(packetBytes) 	81120
attr interpolationmode  none
attr source  rcvdPk
attr title  "packets received, sum(packetBytes)"
scalar scenarioPRJP1.node[61].udp 	sentPk:count 	2628
attr interpolationmode  none
attr source  sentPk
attr title  "packets sent, count"
scalar scenarioPRJP1.node[61].udp 	sentPk:sum(packetBytes) 	1366560
attr interpolationmode  none
attr source  sentPk
attr title  "packets sent, sum(packetBytes)"
scalar scenarioPRJP1.node[61].networkLayer.arp 	failedARPResolution:count 	319
attr title  "ARP failed resolutions, count"
scalar scenarioPRJP1.node[61].networkLayer.arp 	completedARPResolution:count 	4006
attr title  "ARP completed resolutions, count"
scalar scenarioPRJP1.node[61].networkLayer.arp 	initiatedARPResolution:count 	432
attr title  "ARP initiated resolutions, count"
scalar scenarioPRJP1.node[61].networkLayer.arp 	sentReply:count 	53
attr title  "ARP replies sent, count"
scalar scenarioPRJP1.node[61].networkLayer.arp 	sentReq:count 	1158
attr title  "ARP request sent, count"
scalar scenarioPRJP1.node[61].mobility 	startTime 	7.3
scalar scenarioPRJP1.node[61].mobility 	totalTime 	942.7
scalar scenarioPRJP1.node[61].mobility 	stopTime 	950
scalar scenarioPRJP1.node[61].mobility 	minSpeed 	2.4755451814965e-13
scalar scenarioPRJP1.node[61].mobility 	maxSpeed 	19.484277912543
scalar scenarioPRJP1.node[61].mobility 	totalDistance 	10439.851486937
scalar scenarioPRJP1.node[61].mobility 	totalCO2Emission 	2843.5301635953
scalar scenarioPRJP1.node[61].wlan.mgmt 	dataQueueLen:max 	13
attr interpolationmode  sample-hold
attr title  "data queue length, max"
scalar scenarioPRJP1.node[61].wlan.mgmt 	dataQueueLen:timeavg 	0
attr interpolationmode  sample-hold
attr title  "data queue length, timeavg"
scalar scenarioPRJP1.node[61].wlan.mgmt 	dropPkByQueue:count 	0
attr interpolationmode  none
attr source  dropPkByQueue
attr title  "packets dropped by queue, count"
scalar scenarioPRJP1.node[61].wlan.mgmt 	dropPkByQueue:sum(packetBytes) 	0
attr interpolationmode  none
attr source  dropPkByQueue
attr title  "packets dropped by queue, sum(packetBytes)"
scalar scenarioPRJP1.node[61].wlan.mac 	"number of received packets" 	3075
scalar scenarioPRJP1.node[61].wlan.mac 	"number of collisions" 	116407
scalar scenarioPRJP1.node[61].wlan.mac 	"number of internal collisions" 	0
scalar scenarioPRJP1.node[61].wlan.mac 	"number of retry for AC 0" 	15908
scalar scenarioPRJP1.node[61].wlan.mac 	"number of retry for AC 1" 	0
scalar scenarioPRJP1.node[61].wlan.mac 	"number of retry for AC 2" 	0
scalar scenarioPRJP1.node[61].wlan.mac 	"number of retry for AC 3" 	0
scalar scenarioPRJP1.node[61].wlan.mac 	"sent and received bits" 	45877152
scalar scenarioPRJP1.node[61].wlan.mac 	"sent packet within AC 0" 	1833
scalar scenarioPRJP1.node[61].wlan.mac 	"sent packet within AC 1" 	0
scalar scenarioPRJP1.node[61].wlan.mac 	"sent packet within AC 2" 	0
scalar scenarioPRJP1.node[61].wlan.mac 	"sent packet within AC 3" 	0
scalar scenarioPRJP1.node[61].wlan.mac 	"sent in TXOP " 	0
scalar scenarioPRJP1.node[61].wlan.mac 	"sentWithoutRetry AC 0" 	1244
scalar scenarioPRJP1.node[61].wlan.mac 	"sentWithoutRetry AC 1" 	0
scalar scenarioPRJP1.node[61].wlan.mac 	"sentWithoutRetry AC 2" 	0
scalar scenarioPRJP1.node[61].wlan.mac 	"sentWithoutRetry AC 3" 	0
scalar scenarioPRJP1.node[61].wlan.mac 	"numGivenUp AC 0" 	2427
scalar scenarioPRJP1.node[61].wlan.mac 	"numGivenUp AC 1" 	0
scalar scenarioPRJP1.node[61].wlan.mac 	"numGivenUp AC 2" 	0
scalar scenarioPRJP1.node[61].wlan.mac 	"numGivenUp AC 3" 	0
scalar scenarioPRJP1.node[61].wlan.mac 	"numDropped AC 0" 	0
scalar scenarioPRJP1.node[61].wlan.mac 	"numDropped AC 1" 	0
scalar scenarioPRJP1.node[61].wlan.mac 	"numDropped AC 2" 	0
scalar scenarioPRJP1.node[61].wlan.mac 	"numDropped AC 3" 	0
scalar scenarioPRJP1.node[61].wlan.mac 	rcvdPkFromLL:count 	249670
attr interpolationmode  none
attr source  packetReceivedFromLower
attr title  "packets received from lower layer, count"
scalar scenarioPRJP1.node[61].wlan.mac 	rcvdPkFromLL:sum(packetBytes) 	100326413
attr interpolationmode  none
attr source  packetReceivedFromLower
attr title  "packets received from lower layer, sum(packetBytes)"
scalar scenarioPRJP1.node[61].wlan.mac 	sentDownPk:count 	38722
attr interpolationmode  none
attr source  packetSentToLower
attr title  "packets sent to lower layer, count"
scalar scenarioPRJP1.node[61].wlan.mac 	sentDownPk:sum(packetBytes) 	15909691
attr interpolationmode  none
attr source  packetSentToLower
attr title  "packets sent to lower layer, sum(packetBytes)"
scalar scenarioPRJP1.node[61].wlan.mac 	rcvdPkFromHL:count 	19740
attr interpolationmode  none
attr source  packetReceivedFromUpper
attr title  "packets received from higher layer, count"
scalar scenarioPRJP1.node[61].wlan.mac 	rcvdPkFromHL:sum(packetBytes) 	7075233
attr interpolationmode  none
attr source  packetReceivedFromUpper
attr title  "packets received from higher layer, sum(packetBytes)"
scalar scenarioPRJP1.node[61].wlan.mac 	passedUpPk:count 	58911
attr interpolationmode  none
attr source  packetSentToUpper
attr title  "packets passed to higher layer, count"
scalar scenarioPRJP1.node[61].wlan.mac 	passedUpPk:sum(packetBytes) 	17959298
attr interpolationmode  none
attr source  packetSentToUpper
attr title  "packets passed to higher layer, sum(packetBytes)"
statistic scenarioPRJP1.node[61].wlan.radio 	radioChannel:histogram
field count 1
field mean 3
field stddev nan
field sum 3
field sqrsum 9
field min 3
field max 3
attr interpolationmode  sample-hold
attr source  radioChannelChanged
attr title  "Radio channel, histogram"
bin	-INF	0
bin	2	0
bin	3	1
bin	4	0
scalar scenarioPRJP1.node[61].wlan.radio 	transmissionState:count 	154888
attr interpolationmode  sample-hold
attr source  transmissionStateChanged
attr title  "Radio transmission state, count"
scalar scenarioPRJP1.node[61].wlan.radio 	receptionState:count 	652372
attr interpolationmode  sample-hold
attr source  receptionStateChanged
attr title  "Radio reception state, count"
scalar scenarioPRJP1.node[61].wlan.radio 	radioMode:count 	77446
attr interpolationmode  sample-hold
attr source  radioModeChanged
attr title  "Radio mode, count"
statistic scenarioPRJP1.node[61].wlan.radio 	symbolErrorRate:histogram
field count 0
field mean nan
field stddev nan
field sum 0
field sqrsum 0
field min nan
field max nan
attr source  symbolErrorRate
attr title  "Symbol error rate, histogram"
bin	-INF	0
bin	-0.5	0
bin	-0.46666666666667	0
bin	-0.43333333333333	0
bin	-0.4	0
bin	-0.36666666666667	0
bin	-0.33333333333333	0
bin	-0.3	0
bin	-0.26666666666667	0
bin	-0.23333333333333	0
bin	-0.2	0
bin	-0.16666666666667	0
bin	-0.13333333333333	0
bin	-0.1	0
bin	-0.066666666666667	0
bin	-0.033333333333333	0
bin	0	0
bin	0.033333333333333	0
bin	0.066666666666667	0
bin	0.1	0
bin	0.13333333333333	0
bin	0.16666666666667	0
bin	0.2	0
bin	0.23333333333333	0
bin	0.26666666666667	0
bin	0.3	0
bin	0.33333333333333	0
bin	0.36666666666667	0
bin	0.4	0
bin	0.43333333333333	0
bin	0.46666666666667	0
bin	0.5	0
statistic scenarioPRJP1.node[61].wlan.radio 	bitErrorRate:histogram
field count 0
field mean nan
field stddev nan
field sum 0
field sqrsum 0
field min nan
field max nan
attr source  bitErrorRate
attr title  "Bit error rate, histogram"
bin	-INF	0
bin	-0.5	0
bin	-0.46666666666667	0
bin	-0.43333333333333	0
bin	-0.4	0
bin	-0.36666666666667	0
bin	-0.33333333333333	0
bin	-0.3	0
bin	-0.26666666666667	0
bin	-0.23333333333333	0
bin	-0.2	0
bin	-0.16666666666667	0
bin	-0.13333333333333	0
bin	-0.1	0
bin	-0.066666666666667	0
bin	-0.033333333333333	0
bin	0	0
bin	0.033333333333333	0
bin	0.066666666666667	0
bin	0.1	0
bin	0.13333333333333	0
bin	0.16666666666667	0
bin	0.2	0
bin	0.23333333333333	0
bin	0.26666666666667	0
bin	0.3	0
bin	0.33333333333333	0
bin	0.36666666666667	0
bin	0.4	0
bin	0.43333333333333	0
bin	0.46666666666667	0
bin	0.5	0
statistic scenarioPRJP1.node[61].wlan.radio 	packetErrorRate:histogram
field count 249670
field mean 0.43834378182425
field stddev 0.48682151542903
field sum 109441.29200806
field sqrsum 107143.26139051
field min 0
field max 1
attr source  packetErrorRate
attr title  "Packet error rate, histogram"
bin	-INF	0
bin	-0.5	0
bin	-0.43333333333333	0
bin	-0.36666666666667	0
bin	-0.3	0
bin	-0.23333333333333	0
bin	-0.16666666666667	0
bin	-0.1	0
bin	-0.033333333333333	131032
bin	0.033333333333333	3610
bin	0.1	1749
bin	0.16666666666667	1243
bin	0.23333333333333	993
bin	0.3	873
bin	0.36666666666667	737
bin	0.43333333333333	668
bin	0.5	648
bin	0.56666666666667	609
bin	0.63333333333333	640
bin	0.7	611
bin	0.76666666666667	699
bin	0.83333333333333	844
bin	0.9	1260
bin	0.96666666666667	103454
bin	1.0333333333333	0
bin	1.1	0
bin	1.1666666666667	0
bin	1.2333333333333	0
bin	1.3	0
bin	1.3666666666667	0
bin	1.4333333333333	0
bin	1.5	0
statistic scenarioPRJP1.node[61].wlan.radio 	minSNIR:histogram
field count 249670
field mean 478.655874724
field stddev 9812.7755961523
field sum 119506012.24234
field sqrsum 24097971302953
field min 9.6951956313716e-05
field max 1938231.3670388
attr source  minSNIR
attr title  "Min SNIR, histogram"
bin	-INF	0
bin	-5105.3904688901	0
bin	-4424.6611952083	0
bin	-3743.9319215266	0
bin	-3063.2026478448	0
bin	-2382.4733741631	0
bin	-1701.7441004813	0
bin	-1021.0148267996	0
bin	-340.28555311781	229811
bin	340.44372056394	10742
bin	1021.1729942457	3127
bin	1701.9022679274	1483
bin	2382.6315416092	889
bin	3063.3608152909	603
bin	3744.0900889727	439
bin	4424.8193626544	290
bin	5105.5486363362	221
bin	5786.2779100179	179
bin	6467.0071836997	158
bin	7147.7364573814	118
bin	7828.4657310632	98
bin	8509.1950047449	100
bin	9189.9242784267	80
bin	9870.6535521084	59
bin	10551.38282579	57
bin	11232.112099472	56
bin	11912.841373154	55
bin	12593.570646835	38
bin	13274.299920517	37
bin	13955.029194199	46
bin	14635.758467881	33
bin	15316.487741562	951
scalar scenarioPRJP1.node[61].lo0.lo 	droppedPkBitError:count 	0
attr interpolationmode  none
attr source  dropPkBitError
attr title  "packets dropped/bit error, count"
scalar scenarioPRJP1.node[61].lo0.lo 	droppedPkBitError:sum(packetBytes) 	0
attr interpolationmode  none
attr source  dropPkBitError
attr title  "packets dropped/bit error, sum(packetBytes)"
scalar scenarioPRJP1.node[61].lo0.lo 	rcvdPkFromHL:count 	0
attr interpolationmode  none
attr source  packetReceivedFromUpper
attr title  "packets received from higher layer, count"
scalar scenarioPRJP1.node[61].lo0.lo 	rcvdPkFromHL:sum(packetBytes) 	0
attr interpolationmode  none
attr source  packetReceivedFromUpper
attr title  "packets received from higher layer, sum(packetBytes)"
scalar scenarioPRJP1.node[61].lo0.lo 	passedUpPk:count 	0
attr interpolationmode  none
attr source  packetSentToUpper
attr title  "packets passed to higher layer, count"
scalar scenarioPRJP1.node[61].lo0.lo 	passedUpPk:sum(packetBytes) 	0
attr interpolationmode  none
attr source  packetSentToUpper
attr title  "packets passed to higher layer, sum(packetBytes)"
scalar scenarioPRJP1.node[80].app 	"Total sent" 	2606
scalar scenarioPRJP1.node[80].app 	"Total received" 	170
scalar scenarioPRJP1.node[80].app 	"Total deleted" 	0
scalar scenarioPRJP1.node[80].app 	dropPk:count 	0
attr interpolationmode  none
attr source  dropPk
attr title  "packets dropped, count"
scalar scenarioPRJP1.node[80].app 	dropPk:sum(packetBytes) 	0
attr interpolationmode  none
attr source  dropPk
attr title  "packets dropped, sum(packetBytes)"
scalar scenarioPRJP1.node[80].app 	outOfOrderPk:count 	0
attr interpolationmode  none
attr source  outOfOrderPk
attr title  "packets received out of order, count"
scalar scenarioPRJP1.node[80].app 	outOfOrderPk:sum(packetBytes) 	0
attr interpolationmode  none
attr source  outOfOrderPk
attr title  "packets received out of order, sum(packetBytes)"
scalar scenarioPRJP1.node[80].app 	rcvdPk:count 	170
attr interpolationmode  none
attr source  rcvdPk
attr title  "packets received, count"
scalar scenarioPRJP1.node[80].app 	rcvdPk:sum(packetBytes) 	87040
attr interpolationmode  none
attr source  rcvdPk
attr title  "packets received, sum(packetBytes)"
statistic scenarioPRJP1.node[80].app 	endToEndDelay:histogram
field count 170
field mean 0.41430023894082
field stddev 1.0401947492646
field sum 70.431040619939
field sqrsum 212.03846162891
field min 0.000958202599
field max 8.132405874612
attr interpolationmode  none
attr source  messageAge(rcvdPk)
attr title  "delay, histogram"
attr unit  s
bin	-INF	0
bin	-4.0647268340745	0
bin	-3.5226320470218	0
bin	-2.980537259969	0
bin	-2.4384424729163	0
bin	-1.8963476858636	0
bin	-1.3542528988108	0
bin	-0.8121581117581	0
bin	-0.27006332470537	132
bin	0.27203146234737	12
bin	0.8141262494001	9
bin	1.3562210364528	5
bin	1.8983158235056	4
bin	2.4404106105583	3
bin	2.982505397611	0
bin	3.5246001846638	0
bin	4.0666949717165	3
bin	4.6087897587692	1
bin	5.150884545822	0
bin	5.6929793328747	0
bin	6.2350741199274	0
bin	6.7771689069802	0
bin	7.3192636940329	0
bin	7.8613584810856	1
bin	8.4034532681384	0
bin	8.9455480551911	0
bin	9.4876428422438	0
bin	10.029737629297	0
bin	10.571832416349	0
bin	11.113927203402	0
bin	11.656021990455	0
bin	12.198116777507	0
scalar scenarioPRJP1.node[80].app 	sentPk:count 	2606
attr interpolationmode  none
attr source  sentPk
attr title  "packets sent, count"
scalar scenarioPRJP1.node[80].app 	sentPk:sum(packetBytes) 	1334272
attr interpolationmode  none
attr source  sentPk
attr title  "packets sent, sum(packetBytes)"
scalar scenarioPRJP1.node[80].udp 	droppedPkBadChecksum:count 	0
attr interpolationmode  none
attr title  "packets dropped (checksum error), count"
scalar scenarioPRJP1.node[80].udp 	droppedPkWrongPort:count 	0
attr interpolationmode  none
attr title  "packets dropped (wrong port), count"
scalar scenarioPRJP1.node[80].udp 	passedUpPk:count 	170
attr interpolationmode  none
attr title  "packets passed up, count"
scalar scenarioPRJP1.node[80].udp 	rcvdPk:count 	170
attr interpolationmode  none
attr source  rcvdPk
attr title  "packets received, count"
scalar scenarioPRJP1.node[80].udp 	rcvdPk:sum(packetBytes) 	88400
attr interpolationmode  none
attr source  rcvdPk
attr title  "packets received, sum(packetBytes)"
scalar scenarioPRJP1.node[80].udp 	sentPk:count 	2606
attr interpolationmode  none
attr source  sentPk
attr title  "packets sent, count"
scalar scenarioPRJP1.node[80].udp 	sentPk:sum(packetBytes) 	1355120
attr interpolationmode  none
attr source  sentPk
attr title  "packets sent, sum(packetBytes)"
scalar scenarioPRJP1.node[80].networkLayer.arp 	failedARPResolution:count 	302
attr title  "ARP failed resolutions, count"
scalar scenarioPRJP1.node[80].networkLayer.arp 	completedARPResolution:count 	4410
attr title  "ARP completed resolutions, count"
scalar scenarioPRJP1.node[80].networkLayer.arp 	initiatedARPResolution:count 	412
attr title  "ARP initiated resolutions, count"
scalar scenarioPRJP1.node[80].networkLayer.arp 	sentReply:count 	59
attr title  "ARP replies sent, count"
scalar scenarioPRJP1.node[80].networkLayer.arp 	sentReq:count 	1096
attr title  "ARP request sent, count"
scalar scenarioPRJP1.node[80].mobility 	startTime 	9.6
scalar scenarioPRJP1.node[80].mobility 	totalTime 	940.4
scalar scenarioPRJP1.node[80].mobility 	stopTime 	950
scalar scenarioPRJP1.node[80].mobility 	minSpeed 	2.4757803792382e-13
scalar scenarioPRJP1.node[80].mobility 	maxSpeed 	15.435463284976
scalar scenarioPRJP1.node[80].mobility 	totalDistance 	8294.6756352563
scalar scenarioPRJP1.node[80].mobility 	totalCO2Emission 	2162.5406087658
scalar scenarioPRJP1.node[80].wlan.mgmt 	dataQueueLen:max 	16
attr interpolationmode  sample-hold
attr title  "data queue length, max"
scalar scenarioPRJP1.node[80].wlan.mgmt 	dataQueueLen:timeavg 	0
attr interpolationmode  sample-hold
attr title  "data queue length, timeavg"
scalar scenarioPRJP1.node[80].wlan.mgmt 	dropPkByQueue:count 	0
attr interpolationmode  none
attr source  dropPkByQueue
attr title  "packets dropped by queue, count"
scalar scenarioPRJP1.node[80].wlan.mgmt 	dropPkByQueue:sum(packetBytes) 	0
attr interpolationmode  none
attr source  dropPkByQueue
attr title  "packets dropped by queue, sum(packetBytes)"
scalar scenarioPRJP1.node[80].wlan.mac 	"number of received packets" 	2964
scalar scenarioPRJP1.node[80].wlan.mac 	"number of collisions" 	141422
scalar scenarioPRJP1.node[80].wlan.mac 	"number of internal collisions" 	0
scalar scenarioPRJP1.node[80].wlan.mac 	"number of retry for AC 0" 	14548
scalar scenarioPRJP1.node[80].wlan.mac 	"number of retry for AC 1" 	0
scalar scenarioPRJP1.node[80].wlan.mac 	"number of retry for AC 2" 	0
scalar scenarioPRJP1.node[80].wlan.mac 	"number of retry for AC 3" 	0
scalar scenarioPRJP1.node[80].wlan.mac 	"sent and received bits" 	45913016
scalar scenarioPRJP1.node[80].wlan.mac 	"sent packet within AC 0" 	1957
scalar scenarioPRJP1.node[80].wlan.mac 	"sent packet within AC 1" 	0
scalar scenarioPRJP1.node[80].wlan.mac 	"sent packet within AC 2" 	0
scalar scenarioPRJP1.node[80].wlan.mac 	"sent packet within AC 3" 	0
scalar scenarioPRJP1.node[80].wlan.mac 	"sent in TXOP " 	0
scalar scenarioPRJP1.node[80].wlan.mac 	"sentWithoutRetry AC 0" 	1281
scalar scenarioPRJP1.node[80].wlan.mac 	"sentWithoutRetry AC 1" 	0
scalar scenarioPRJP1.node[80].wlan.mac 	"sentWithoutRetry AC 2" 	0
scalar scenarioPRJP1.node[80].wlan.mac 	"sentWithoutRetry AC 3" 	0
scalar scenarioPRJP1.node[80].wlan.mac 	"numGivenUp AC 0" 	2162
scalar scenarioPRJP1.node[80].wlan.mac 	"numGivenUp AC 1" 	0
scalar scenarioPRJP1.node[80].wlan.mac 	"numGivenUp AC 2" 	0
scalar scenarioPRJP1.node[80].wlan.mac 	"numGivenUp AC 3" 	0
scalar scenarioPRJP1.node[80].wlan.mac 	"numDropped AC 0" 	0
scalar scenarioPRJP1.node[80].wlan.mac 	"numDropped AC 1" 	0
scalar scenarioPRJP1.node[80].wlan.mac 	"numDropped AC 2" 	0
scalar scenarioPRJP1.node[80].wlan.mac 	"numDropped AC 3" 	0
scalar scenarioPRJP1.node[80].wlan.mac 	rcvdPkFromLL:count 	292564
attr interpolationmode  none
attr source  packetReceivedFromLower
attr title  "packets received from lower layer, count"
scalar scenarioPRJP1.node[80].wlan.mac 	rcvdPkFromLL:sum(packetBytes) 	117265638
attr interpolationmode  none
attr source  packetReceivedFromLower
attr title  "packets received from lower layer, sum(packetBytes)"
scalar scenarioPRJP1.node[80].wlan.mac 	sentDownPk:count 	37411
attr interpolationmode  none
attr source  packetSentToLower
attr title  "packets sent to lower layer, count"
scalar scenarioPRJP1.node[80].wlan.mac 	sentDownPk:sum(packetBytes) 	15029670
attr interpolationmode  none
attr source  packetSentToLower
attr title  "packets sent to lower layer, sum(packetBytes)"
scalar scenarioPRJP1.node[80].wlan.mac 	rcvdPkFromHL:count 	19900
attr interpolationmode  none
attr source  packetReceivedFromUpper
attr title  "packets received from higher layer, count"
scalar scenarioPRJP1.node[80].wlan.mac 	rcvdPkFromHL:sum(packetBytes) 	6933859
attr interpolationmode  none
attr source  packetReceivedFromUpper
attr title  "packets received from higher layer, sum(packetBytes)"
scalar scenarioPRJP1.node[80].wlan.mac 	passedUpPk:count 	65259
attr interpolationmode  none
attr source  packetSentToUpper
attr title  "packets passed to higher layer, count"
scalar scenarioPRJP1.node[80].wlan.mac 	passedUpPk:sum(packetBytes) 	19406772
attr interpolationmode  none
attr source  packetSentToUpper
attr title  "packets passed to higher layer, sum(packetBytes)"
statistic scenarioPRJP1.node[80].wlan.radio 	radioChannel:histogram
field count 1
field mean 3
field stddev nan
field sum 3
field sqrsum 9
field min 3
field max 3
attr interpolationmode  sample-hold
attr source  radioChannelChanged
attr title  "Radio channel, histogram"
bin	-INF	0
bin	2	0
bin	3	1
bin	4	0
scalar scenarioPRJP1.node[80].wlan.radio 	transmissionState:count 	149644
attr interpolationmode  sample-hold
attr source  transmissionStateChanged
attr title  "Radio transmission state, count"
scalar scenarioPRJP1.node[80].wlan.radio 	receptionState:count 	760918
attr interpolationmode  sample-hold
attr source  receptionStateChanged
attr title  "Radio reception state, count"
scalar scenarioPRJP1.node[80].wlan.radio 	radioMode:count 	74824
attr interpolationmode  sample-hold
attr source  radioModeChanged
attr title  "Radio mode, count"
statistic scenarioPRJP1.node[80].wlan.radio 	symbolErrorRate:histogram
field count 0
field mean nan
field stddev nan
field sum 0
field sqrsum 0
field min nan
field max nan
attr source  symbolErrorRate
attr title  "Symbol error rate, histogram"
bin	-INF	0
bin	-0.5	0
bin	-0.46666666666667	0
bin	-0.43333333333333	0
bin	-0.4	0
bin	-0.36666666666667	0
bin	-0.33333333333333	0
bin	-0.3	0
bin	-0.26666666666667	0
bin	-0.23333333333333	0
bin	-0.2	0
bin	-0.16666666666667	0
bin	-0.13333333333333	0
bin	-0.1	0
bin	-0.066666666666667	0
bin	-0.033333333333333	0
bin	0	0
bin	0.033333333333333	0
bin	0.066666666666667	0
bin	0.1	0
bin	0.13333333333333	0
bin	0.16666666666667	0
bin	0.2	0
bin	0.23333333333333	0
bin	0.26666666666667	0
bin	0.3	0
bin	0.33333333333333	0
bin	0.36666666666667	0
bin	0.4	0
bin	0.43333333333333	0
bin	0.46666666666667	0
bin	0.5	0
statistic scenarioPRJP1.node[80].wlan.radio 	bitErrorRate:histogram
field count 0
field mean nan
field stddev nan
field sum 0
field sqrsum 0
field min nan
field max nan
attr source  bitErrorRate
attr title  "Bit error rate, histogram"
bin	-INF	0
bin	-0.5	0
bin	-0.46666666666667	0
bin	-0.43333333333333	0
bin	-0.4	0
bin	-0.36666666666667	0
bin	-0.33333333333333	0
bin	-0.3	0
bin	-0.26666666666667	0
bin	-0.23333333333333	0
bin	-0.2	0
bin	-0.16666666666667	0
bin	-0.13333333333333	0
bin	-0.1	0
bin	-0.066666666666667	0
bin	-0.033333333333333	0
bin	0	0
bin	0.033333333333333	0
bin	0.066666666666667	0
bin	0.1	0
bin	0.13333333333333	0
bin	0.16666666666667	0
bin	0.2	0
bin	0.23333333333333	0
bin	0.26666666666667	0
bin	0.3	0
bin	0.33333333333333	0
bin	0.36666666666667	0
bin	0.4	0
bin	0.43333333333333	0
bin	0.46666666666667	0
bin	0.5	0
statistic scenarioPRJP1.node[80].wlan.radio 	packetErrorRate:histogram
field count 292564
field mean 0.45572502852778
field stddev 0.48906230029472
field sum 133328.7372462
field sqrsum 130737.02661601
field min 0
field max 1
attr source  packetErrorRate
attr title  "Packet error rate, histogram"
bin	-INF	0
bin	-0.5	0
bin	-0.43333333333333	0
bin	-0.36666666666667	0
bin	-0.3	0
bin	-0.23333333333333	0
bin	-0.16666666666667	0
bin	-0.1	0
bin	-0.033333333333333	148975
bin	0.033333333333333	3957
bin	0.1	1954
bin	0.16666666666667	1435
bin	0.23333333333333	1117
bin	0.3	963
bin	0.36666666666667	811
bin	0.43333333333333	784
bin	0.5	714
bin	0.56666666666667	696
bin	0.63333333333333	678
bin	0.7	696
bin	0.76666666666667	831
bin	0.83333333333333	948
bin	0.9	1519
bin	0.96666666666667	126486
bin	1.0333333333333	0
bin	1.1	0
bin	1.1666666666667	0
bin	1.2333333333333	0
bin	1.3	0
bin	1.3666666666667	0
bin	1.4333333333333	0
bin	1.5	0
statistic scenarioPRJP1.node[80].wlan.radio 	minSNIR:histogram
field count 292564
field mean 307.96418780307
field stddev 5850.6856780417
field sum 90099234.640418
field sqrsum 10042331809759
field min 5.8516646506652e-05
field max 610039.29663332
attr source  minSNIR
attr title  "Min SNIR, histogram"
bin	-INF	0
bin	-3499.3245965707	0
bin	-3032.7452354155	0
bin	-2566.1658742602	0
bin	-2099.586513105	0
bin	-1633.0071519498	0
bin	-1166.4277907945	0
bin	-699.84842963929	0
bin	-233.26906848405	269703
bin	233.31029267118	12577
bin	699.88965382641	3454
bin	1166.4690149816	1626
bin	1633.0483761369	922
bin	2099.6277372921	636
bin	2566.2070984473	474
bin	3032.7864596026	348
bin	3499.3658207578	262
bin	3965.9451819131	175
bin	4432.5245430683	194
bin	4899.1039042235	138
bin	5365.6832653788	112
bin	5832.262626534	120
bin	6298.8419876892	125
bin	6765.4213488445	89
bin	7232.0007099997	82
bin	7698.5800711549	59
bin	8165.1594323102	49
bin	8631.7387934654	64
bin	9098.3181546206	52
bin	9564.8975157759	63
bin	10031.476876931	49
bin	10498.056238086	1191
scalar scenarioPRJP1.node[80].lo0.lo 	droppedPkBitError:count 	0
attr interpolationmode  none
attr source  dropPkBitError
attr title  "packets dropped/bit error, count"
scalar scenarioPRJP1.node[80].lo0.lo 	droppedPkBitError:sum(packetBytes) 	0
attr interpolationmode  none
attr source  dropPkBitError
attr title  "packets dropped/bit error, sum(packetBytes)"
scalar scenarioPRJP1.node[80].lo0.lo 	rcvdPkFromHL:count 	0
attr interpolationmode  none
attr source  packetReceivedFromUpper
attr title  "packets received from higher layer, count"
scalar scenarioPRJP1.node[80].lo0.lo 	rcvdPkFromHL:sum(packetBytes) 	0
attr interpolationmode  none
attr source  packetReceivedFromUpper
attr title  "packets received from higher layer, sum(packetBytes)"
scalar scenarioPRJP1.node[80].lo0.lo 	passedUpPk:count 	0
attr interpolationmode  none
attr source  packetSentToUpper
attr title  "packets passed to higher layer, count"
scalar scenarioPRJP1.node[80].lo0.lo 	passedUpPk:sum(packetBytes) 	0
attr interpolationmode  none
attr source  packetSentToUpper
attr title  "packets passed to higher layer, sum(packetBytes)"
scalar scenarioPRJP1.node[1].app 	"Total sent" 	2605
scalar scenarioPRJP1.node[1].app 	"Total received" 	145
scalar scenarioPRJP1.node[1].app 	"Total deleted" 	0
scalar scenarioPRJP1.node[1].app 	dropPk:count 	0
attr interpolationmode  none
attr source  dropPk
attr title  "packets dropped, count"
scalar scenarioPRJP1.node[1].app 	dropPk:sum(packetBytes) 	0
attr interpolationmode  none
attr source  dropPk
attr title  "packets dropped, sum(packetBytes)"
scalar scenarioPRJP1.node[1].app 	outOfOrderPk:count 	0
attr interpolationmode  none
attr source  outOfOrderPk
attr title  "packets received out of order, count"
scalar scenarioPRJP1.node[1].app 	outOfOrderPk:sum(packetBytes) 	0
attr interpolationmode  none
attr source  outOfOrderPk
attr title  "packets received out of order, sum(packetBytes)"
scalar scenarioPRJP1.node[1].app 	rcvdPk:count 	145
attr interpolationmode  none
attr source  rcvdPk
attr title  "packets received, count"
scalar scenarioPRJP1.node[1].app 	rcvdPk:sum(packetBytes) 	74240
attr interpolationmode  none
attr source  rcvdPk
attr title  "packets received, sum(packetBytes)"
statistic scenarioPRJP1.node[1].app 	endToEndDelay:histogram
field count 145
field mean 0.67733516465795
field stddev 1.6228066981312
field sum 98.213598875403
field sqrsum 445.74775161386
field min 0.000945022685
field max 11.13622352554
attr interpolationmode  none
attr source  messageAge(rcvdPk)
attr title  "delay, histogram"
attr unit  s
bin	-INF	0
bin	-5.5666942287425	0
bin	-4.8243423285522	0
bin	-4.0819904283618	0
bin	-3.3396385281715	0
bin	-2.5972866279812	0
bin	-1.8549347277908	0
bin	-1.1125828276005	0
bin	-0.37023092741017	107
bin	0.37212097278017	15
bin	1.1144728729705	7
bin	1.8568247731608	3
bin	2.5991766733512	4
bin	3.3415285735415	4
bin	4.0838804737318	1
bin	4.8262323739222	1
bin	5.5685842741125	0
bin	6.3109361743028	0
bin	7.0532880744932	0
bin	7.7956399746835	1
bin	8.5379918748738	1
bin	9.2803437750642	0
bin	10.022695675255	0
bin	10.765047575445	1
bin	11.507399475635	0
bin	12.249751375826	0
bin	12.992103276016	0
bin	13.734455176206	0
bin	14.476807076397	0
bin	15.219158976587	0
bin	15.961510876777	0
bin	16.703862776968	0
scalar scenarioPRJP1.node[1].app 	sentPk:count 	2605
attr interpolationmode  none
attr source  sentPk
attr title  "packets sent, count"
scalar scenarioPRJP1.node[1].app 	sentPk:sum(packetBytes) 	1333760
attr interpolationmode  none
attr source  sentPk
attr title  "packets sent, sum(packetBytes)"
scalar scenarioPRJP1.node[1].udp 	droppedPkBadChecksum:count 	0
attr interpolationmode  none
attr title  "packets dropped (checksum error), count"
scalar scenarioPRJP1.node[1].udp 	droppedPkWrongPort:count 	0
attr interpolationmode  none
attr title  "packets dropped (wrong port), count"
scalar scenarioPRJP1.node[1].udp 	passedUpPk:count 	145
attr interpolationmode  none
attr title  "packets passed up, count"
scalar scenarioPRJP1.node[1].udp 	rcvdPk:count 	145
attr interpolationmode  none
attr source  rcvdPk
attr title  "packets received, count"
scalar scenarioPRJP1.node[1].udp 	rcvdPk:sum(packetBytes) 	75400
attr interpolationmode  none
attr source  rcvdPk
attr title  "packets received, sum(packetBytes)"
scalar scenarioPRJP1.node[1].udp 	sentPk:count 	2605
attr interpolationmode  none
attr source  sentPk
attr title  "packets sent, count"
scalar scenarioPRJP1.node[1].udp 	sentPk:sum(packetBytes) 	1354600
attr interpolationmode  none
attr source  sentPk
attr title  "packets sent, sum(packetBytes)"
scalar scenarioPRJP1.node[1].networkLayer.arp 	failedARPResolution:count 	229
attr title  "ARP failed resolutions, count"
scalar scenarioPRJP1.node[1].networkLayer.arp 	completedARPResolution:count 	4243
attr title  "ARP completed resolutions, count"
scalar scenarioPRJP1.node[1].networkLayer.arp 	initiatedARPResolution:count 	337
attr title  "ARP initiated resolutions, count"
scalar scenarioPRJP1.node[1].networkLayer.arp 	sentReply:count 	70
attr title  "ARP replies sent, count"
scalar scenarioPRJP1.node[1].networkLayer.arp 	sentReq:count 	883
attr title  "ARP request sent, count"
scalar scenarioPRJP1.node[1].mobility 	startTime 	0.1
scalar scenarioPRJP1.node[1].mobility 	totalTime 	949.9
scalar scenarioPRJP1.node[1].mobility 	stopTime 	950
scalar scenarioPRJP1.node[1].mobility 	minSpeed 	2.47566869751e-13
scalar scenarioPRJP1.node[1].mobility 	maxSpeed 	15.927806796965
scalar scenarioPRJP1.node[1].mobility 	totalDistance 	9562.3762817964
scalar scenarioPRJP1.node[1].mobility 	totalCO2Emission 	2408.7022020308
scalar scenarioPRJP1.node[1].wlan.mgmt 	dataQueueLen:max 	13
attr interpolationmode  sample-hold
attr title  "data queue length, max"
scalar scenarioPRJP1.node[1].wlan.mgmt 	dataQueueLen:timeavg 	0
attr interpolationmode  sample-hold
attr title  "data queue length, timeavg"
scalar scenarioPRJP1.node[1].wlan.mgmt 	dropPkByQueue:count 	0
attr interpolationmode  none
attr source  dropPkByQueue
attr title  "packets dropped by queue, count"
scalar scenarioPRJP1.node[1].wlan.mgmt 	dropPkByQueue:sum(packetBytes) 	0
attr interpolationmode  none
attr source  dropPkByQueue
attr title  "packets dropped by queue, sum(packetBytes)"
scalar scenarioPRJP1.node[1].wlan.mac 	"number of received packets" 	2950
scalar scenarioPRJP1.node[1].wlan.mac 	"number of collisions" 	134358
scalar scenarioPRJP1.node[1].wlan.mac 	"number of internal collisions" 	0
scalar scenarioPRJP1.node[1].wlan.mac 	"number of retry for AC 0" 	16517
scalar scenarioPRJP1.node[1].wlan.mac 	"number of retry for AC 1" 	0
scalar scenarioPRJP1.node[1].wlan.mac 	"number of retry for AC 2" 	0
scalar scenarioPRJP1.node[1].wlan.mac 	"number of retry for AC 3" 	0
scalar scenarioPRJP1.node[1].wlan.mac 	"sent and received bits" 	47363568
scalar scenarioPRJP1.node[1].wlan.mac 	"sent packet within AC 0" 	1829
scalar scenarioPRJP1.node[1].wlan.mac 	"sent packet within AC 1" 	1
scalar scenarioPRJP1.node[1].wlan.mac 	"sent packet within AC 2" 	0
scalar scenarioPRJP1.node[1].wlan.mac 	"sent packet within AC 3" 	0
scalar scenarioPRJP1.node[1].wlan.mac 	"sent in TXOP " 	0
scalar scenarioPRJP1.node[1].wlan.mac 	"sentWithoutRetry AC 0" 	1194
scalar scenarioPRJP1.node[1].wlan.mac 	"sentWithoutRetry AC 1" 	1
scalar scenarioPRJP1.node[1].wlan.mac 	"sentWithoutRetry AC 2" 	0
scalar scenarioPRJP1.node[1].wlan.mac 	"sentWithoutRetry AC 3" 	0
scalar scenarioPRJP1.node[1].wlan.mac 	"numGivenUp AC 0" 	2492
scalar scenarioPRJP1.node[1].wlan.mac 	"numGivenUp AC 1" 	0
scalar scenarioPRJP1.node[1].wlan.mac 	"numGivenUp AC 2" 	0
scalar scenarioPRJP1.node[1].wlan.mac 	"numGivenUp AC 3" 	0
scalar scenarioPRJP1.node[1].wlan.mac 	"numDropped AC 0" 	0
scalar scenarioPRJP1.node[1].wlan.mac 	"numDropped AC 1" 	0
scalar scenarioPRJP1.node[1].wlan.mac 	"numDropped AC 2" 	0
scalar scenarioPRJP1.node[1].wlan.mac 	"numDropped AC 3" 	0
scalar scenarioPRJP1.node[1].wlan.mac 	rcvdPkFromLL:count 	268841
attr interpolationmode  none
attr source  packetReceivedFromLower
attr title  "packets received from lower layer, count"
scalar scenarioPRJP1.node[1].wlan.mac 	rcvdPkFromLL:sum(packetBytes) 	109176178
attr interpolationmode  none
attr source  packetReceivedFromLower
attr title  "packets received from lower layer, sum(packetBytes)"
scalar scenarioPRJP1.node[1].wlan.mac 	sentDownPk:count 	39445
attr interpolationmode  none
attr source  packetSentToLower
attr title  "packets sent to lower layer, count"
scalar scenarioPRJP1.node[1].wlan.mac 	sentDownPk:sum(packetBytes) 	16419599
attr interpolationmode  none
attr source  packetSentToLower
attr title  "packets sent to lower layer, sum(packetBytes)"
scalar scenarioPRJP1.node[1].wlan.mac 	rcvdPkFromHL:count 	19978
attr interpolationmode  none
attr source  packetReceivedFromUpper
attr title  "packets received from higher layer, count"
scalar scenarioPRJP1.node[1].wlan.mac 	rcvdPkFromHL:sum(packetBytes) 	7288758
attr interpolationmode  none
attr source  packetReceivedFromUpper
attr title  "packets received from higher layer, sum(packetBytes)"
scalar scenarioPRJP1.node[1].wlan.mac 	passedUpPk:count 	58058
attr interpolationmode  none
attr source  packetSentToUpper
attr title  "packets passed to higher layer, count"
scalar scenarioPRJP1.node[1].wlan.mac 	passedUpPk:sum(packetBytes) 	18367542
attr interpolationmode  none
attr source  packetSentToUpper
[...]
attr title  "packets received from higher layer, sum(packetBytes)"
scalar scenarioPRJP1.node[76].wlan.mac 	passedUpPk:count 	47558
attr interpolationmode  none
attr source  packetSentToUpper
attr title  "packets passed to higher layer, count"
scalar scenarioPRJP1.node[76].wlan.mac 	passedUpPk:sum(packetBytes) 	15204441
attr interpolationmode  none
attr source  packetSentToUpper
attr title  "packets passed to higher layer, sum(packetBytes)"
statistic scenarioPRJP1.node[76].wlan.radio 	radioChannel:histogram
field count 1
field mean 3
field stddev nan
field sum 3
field sqrsum 9
field min 3
field max 3
attr interpolationmode  sample-hold
attr source  radioChannelChanged
attr title  "Radio channel, histogram"
bin	-INF	0
bin	2	0
bin	3	1
bin	4	0
scalar scenarioPRJP1.node[76].wlan.radio 	transmissionState:count 	152748
attr interpolationmode  sample-hold
attr source  transmissionStateChanged
attr title  "Radio transmission state, count"
scalar scenarioPRJP1.node[76].wlan.radio 	receptionState:count 	616845
attr interpolationmode  sample-hold
attr source  receptionStateChanged
attr title  "Radio reception state, count"
scalar scenarioPRJP1.node[76].wlan.radio 	radioMode:count 	76376
attr interpolationmode  sample-hold
attr source  radioModeChanged
attr title  "Radio mode, count"
statistic scenarioPRJP1.node[76].wlan.radio 	symbolErrorRate:histogram
field count 0
field mean nan
field stddev nan
field sum 0
field sqrsum 0
field min nan
field max nan
attr source  symbolErrorRate
attr title  "Symbol error rate, histogram"
bin	-INF	0
bin	-0.5	0
bin	-0.46666666666667	0
bin	-0.43333333333333	0
bin	-0.4	0
bin	-0.36666666666667	0
bin	-0.33333333333333	0
bin	-0.3	0
bin	-0.26666666666667	0
bin	-0.23333333333333	0
bin	-0.2	0
bin	-0.16666666666667	0
bin	-0.13333333333333	0
bin	-0.1	0
bin	-0.066666666666667	0
bin	-0.033333333333333	0
bin	0	0
bin	0.033333333333333	0
bin	0.066666666666667	0
bin	0.1	0
bin	0.13333333333333	0
bin	0.16666666666667	0
bin	0.2	0
bin	0.23333333333333	0
bin	0.26666666666667	0
bin	0.3	0
bin	0.33333333333333	0
bin	0.36666666666667	0
bin	0.4	0
bin	0.43333333333333	0
bin	0.46666666666667	0
bin	0.5	0
statistic scenarioPRJP1.node[76].wlan.radio 	bitErrorRate:histogram
field count 0
field mean nan
field stddev nan
field sum 0
field sqrsum 0
field min nan
field max nan
attr source  bitErrorRate
attr title  "Bit error rate, histogram"
bin	-INF	0
bin	-0.5	0
bin	-0.46666666666667	0
bin	-0.43333333333333	0
bin	-0.4	0
bin	-0.36666666666667	0
bin	-0.33333333333333	0
bin	-0.3	0
bin	-0.26666666666667	0
bin	-0.23333333333333	0
bin	-0.2	0
bin	-0.16666666666667	0
bin	-0.13333333333333	0
bin	-0.1	0
bin	-0.066666666666667	0
bin	-0.033333333333333	0
bin	0	0
bin	0.033333333333333	0
bin	0.066666666666667	0
bin	0.1	0
bin	0.13333333333333	0
bin	0.16666666666667	0
bin	0.2	0
bin	0.23333333333333	0
bin	0.26666666666667	0
bin	0.3	0
bin	0.33333333333333	0
bin	0.36666666666667	0
bin	0.4	0
bin	0.43333333333333	0
bin	0.46666666666667	0
bin	0.5	0
statistic scenarioPRJP1.node[76].wlan.radio 	packetErrorRate:histogram
field count 229370
field mean 0.4926075183799
field stddev 0.49003261395516
field sum 112989.3864908
field sqrsum 110738.24944415
field min 0
field max 1
attr source  packetErrorRate
attr title  "Packet error rate, histogram"
bin	-INF	0
bin	-0.5	0
bin	-0.43333333333333	0
bin	-0.36666666666667	0
bin	-0.3	0
bin	-0.23333333333333	0
bin	-0.16666666666667	0
bin	-0.1	0
bin	-0.033333333333333	107477
bin	0.033333333333333	3431
bin	0.1	1703
bin	0.16666666666667	1231
bin	0.23333333333333	988
bin	0.3	790
bin	0.36666666666667	753
bin	0.43333333333333	625
bin	0.5	635
bin	0.56666666666667	629
bin	0.63333333333333	611
bin	0.7	626
bin	0.76666666666667	666
bin	0.83333333333333	820
bin	0.9	1364
bin	0.96666666666667	107021
bin	1.0333333333333	0
bin	1.1	0
bin	1.1666666666667	0
bin	1.2333333333333	0
bin	1.3	0
bin	1.3666666666667	0
bin	1.4333333333333	0
bin	1.5	0
statistic scenarioPRJP1.node[76].wlan.radio 	minSNIR:histogram
field count 229370
field mean 322.96708746812
field stddev 9503.9083846663
field sum 74078960.852564
field sqrsum 20741513603317
field min 9.2311900172886e-05
field max 2886052.4584049
attr source  minSNIR
attr title  "Min SNIR, histogram"
bin	-INF	0
bin	-43952.652323989	0
bin	-38092.294713795	0
bin	-32231.937103601	0
bin	-26371.579493407	0
bin	-20511.221883213	0
bin	-14650.864273019	0
bin	-8790.5066628248	0
bin	-2930.1490526307	226967
bin	2930.2085575634	1537
bin	8790.5661677575	311
bin	14650.923777952	132
bin	20511.281388146	65
bin	26371.63899834	51
bin	32231.996608534	39
bin	38092.354218728	34
bin	43952.711828922	20
bin	49813.069439116	15
bin	55673.42704931	13
bin	61533.784659504	19
bin	67394.142269698	10
bin	73254.499879893	11
bin	79114.857490087	10
bin	84975.215100281	5
bin	90835.572710475	7
bin	96695.930320669	9
bin	102556.28793086	9
bin	108416.64554106	6
bin	114277.00315125	6
bin	120137.36076145	1
bin	125997.71837164	5
bin	131858.07598183	88
scalar scenarioPRJP1.node[76].lo0.lo 	droppedPkBitError:count 	0
attr interpolationmode  none
attr source  dropPkBitError
attr title  "packets dropped/bit error, count"
scalar scenarioPRJP1.node[76].lo0.lo 	droppedPkBitError:sum(packetBytes) 	0
attr interpolationmode  none
attr source  dropPkBitError
attr title  "packets dropped/bit error, sum(packetBytes)"
scalar scenarioPRJP1.node[76].lo0.lo 	rcvdPkFromHL:count 	0
attr interpolationmode  none
attr source  packetReceivedFromUpper
attr title  "packets received from higher layer, count"
scalar scenarioPRJP1.node[76].lo0.lo 	rcvdPkFromHL:sum(packetBytes) 	0
attr interpolationmode  none
attr source  packetReceivedFromUpper
attr title  "packets received from higher layer, sum(packetBytes)"
scalar scenarioPRJP1.node[76].lo0.lo 	passedUpPk:count 	0
attr interpolationmode  none
attr source  packetSentToUpper
attr title  "packets passed to higher layer, count"
scalar scenarioPRJP1.node[76].lo0.lo 	passedUpPk:sum(packetBytes) 	0
attr interpolationmode  none
attr source  packetSentToUpper
attr title  "packets passed to higher layer, sum(packetBytes)"
scalar scenarioPRJP1.node[94].app 	"Total sent" 	2602
scalar scenarioPRJP1.node[94].app 	"Total received" 	165
scalar scenarioPRJP1.node[94].app 	"Total deleted" 	0
scalar scenarioPRJP1.node[94].app 	dropPk:count 	0
attr interpolationmode  none
attr source  dropPk
attr title  "packets dropped, count"
scalar scenarioPRJP1.node[94].app 	dropPk:sum(packetBytes) 	0
attr interpolationmode  none
attr source  dropPk
attr title  "packets dropped, sum(packetBytes)"
scalar scenarioPRJP1.node[94].app 	outOfOrderPk:count 	0
attr interpolationmode  none
attr source  outOfOrderPk
attr title  "packets received out of order, count"
scalar scenarioPRJP1.node[94].app 	outOfOrderPk:sum(packetBytes) 	0
attr interpolationmode  none
attr source  outOfOrderPk
attr title  "packets received out of order, sum(packetBytes)"
scalar scenarioPRJP1.node[94].app 	rcvdPk:count 	165
attr interpolationmode  none
attr source  rcvdPk
attr title  "packets received, count"
scalar scenarioPRJP1.node[94].app 	rcvdPk:sum(packetBytes) 	84480
attr interpolationmode  none
attr source  rcvdPk
attr title  "packets received, sum(packetBytes)"
statistic scenarioPRJP1.node[94].app 	endToEndDelay:histogram
field count 165
field mean 0.97685007952341
field stddev 1.9906695888664
field sum 161.18026312136
field sqrsum 807.34248042186
field min 0.000945110507
field max 13.69716853801
attr interpolationmode  none
attr source  messageAge(rcvdPk)
attr title  "delay, histogram"
attr unit  s
bin	-INF	0
bin	-6.847166448056	0
bin	-5.9340848931197	0
bin	-5.0210033381835	0
bin	-4.1079217832472	0
bin	-3.1948402283109	0
bin	-2.2817586733747	0
bin	-1.3686771184384	0
bin	-0.45559556350213	113
bin	0.45748599143413	13
bin	1.3705675463704	19
bin	2.2836491013067	3
bin	3.1967306562429	3
bin	4.1098122111792	4
bin	5.0228937661155	5
bin	5.9359753210517	0
bin	6.849056875988	1
bin	7.7621384309243	2
bin	8.6752199858605	1
bin	9.5883015407968	0
bin	10.501383095733	0
bin	11.414464650669	0
bin	12.327546205606	0
bin	13.240627760542	1
bin	14.153709315478	0
bin	15.066790870414	0
bin	15.979872425351	0
bin	16.892953980287	0
bin	17.806035535223	0
bin	18.719117090159	0
bin	19.632198645096	0
bin	20.545280200032	0
scalar scenarioPRJP1.node[94].app 	sentPk:count 	2602
attr interpolationmode  none
attr source  sentPk
attr title  "packets sent, count"
scalar scenarioPRJP1.node[94].app 	sentPk:sum(packetBytes) 	1332224
attr interpolationmode  none
attr source  sentPk
attr title  "packets sent, sum(packetBytes)"
scalar scenarioPRJP1.node[94].udp 	droppedPkBadChecksum:count 	0
attr interpolationmode  none
attr title  "packets dropped (checksum error), count"
scalar scenarioPRJP1.node[94].udp 	droppedPkWrongPort:count 	0
attr interpolationmode  none
attr title  "packets dropped (wrong port), count"
scalar scenarioPRJP1.node[94].udp 	passedUpPk:count 	165
attr interpolationmode  none
attr title  "packets passed up, count"
scalar scenarioPRJP1.node[94].udp 	rcvdPk:count 	165
attr interpolationmode  none
attr source  rcvdPk
attr title  "packets received, count"
scalar scenarioPRJP1.node[94].udp 	rcvdPk:sum(packetBytes) 	85800
attr interpolationmode  none
attr source  rcvdPk
attr title  "packets received, sum(packetBytes)"
scalar scenarioPRJP1.node[94].udp 	sentPk:count 	2602
attr interpolationmode  none
attr source  sentPk
attr title  "packets sent, count"
scalar scenarioPRJP1.node[94].udp 	sentPk:sum(packetBytes) 	1353040
attr interpolationmode  none
attr source  sentPk
attr title  "packets sent, sum(packetBytes)"
scalar scenarioPRJP1.node[94].networkLayer.arp 	failedARPResolution:count 	273
attr title  "ARP failed resolutions, count"
scalar scenarioPRJP1.node[94].networkLayer.arp 	completedARPResolution:count 	3941
attr title  "ARP completed resolutions, count"
scalar scenarioPRJP1.node[94].networkLayer.arp 	initiatedARPResolution:count 	391
attr title  "ARP initiated resolutions, count"
scalar scenarioPRJP1.node[94].networkLayer.arp 	sentReply:count 	68
attr title  "ARP replies sent, count"
scalar scenarioPRJP1.node[94].networkLayer.arp 	sentReq:count 	1031
attr title  "ARP request sent, count"
scalar scenarioPRJP1.node[94].mobility 	startTime 	9.7
scalar scenarioPRJP1.node[94].mobility 	totalTime 	940.3
scalar scenarioPRJP1.node[94].mobility 	stopTime 	950
scalar scenarioPRJP1.node[94].mobility 	minSpeed 	2.4756862374161e-13
scalar scenarioPRJP1.node[94].mobility 	maxSpeed 	21.099227245633
scalar scenarioPRJP1.node[94].mobility 	totalDistance 	11149.177839824
scalar scenarioPRJP1.node[94].mobility 	totalCO2Emission 	2958.1575491791
scalar scenarioPRJP1.node[94].wlan.mgmt 	dataQueueLen:max 	9
attr interpolationmode  sample-hold
attr title  "data queue length, max"
scalar scenarioPRJP1.node[94].wlan.mgmt 	dataQueueLen:timeavg 	0
attr interpolationmode  sample-hold
attr title  "data queue length, timeavg"
scalar scenarioPRJP1.node[94].wlan.mgmt 	dropPkByQueue:count 	0
attr interpolationmode  none
attr source  dropPkByQueue
attr title  "packets dropped by queue, count"
scalar scenarioPRJP1.node[94].wlan.mgmt 	dropPkByQueue:sum(packetBytes) 	0
attr interpolationmode  none
attr source  dropPkByQueue
attr title  "packets dropped by queue, sum(packetBytes)"
scalar scenarioPRJP1.node[94].wlan.mac 	"number of received packets" 	3094
scalar scenarioPRJP1.node[94].wlan.mac 	"number of collisions" 	133209
scalar scenarioPRJP1.node[94].wlan.mac 	"number of internal collisions" 	0
scalar scenarioPRJP1.node[94].wlan.mac 	"number of retry for AC 0" 	16538
scalar scenarioPRJP1.node[94].wlan.mac 	"number of retry for AC 1" 	0
scalar scenarioPRJP1.node[94].wlan.mac 	"number of retry for AC 2" 	0
scalar scenarioPRJP1.node[94].wlan.mac 	"number of retry for AC 3" 	0
scalar scenarioPRJP1.node[94].wlan.mac 	"sent and received bits" 	45826312
scalar scenarioPRJP1.node[94].wlan.mac 	"sent packet within AC 0" 	1745
scalar scenarioPRJP1.node[94].wlan.mac 	"sent packet within AC 1" 	2
scalar scenarioPRJP1.node[94].wlan.mac 	"sent packet within AC 2" 	0
scalar scenarioPRJP1.node[94].wlan.mac 	"sent packet within AC 3" 	0
scalar scenarioPRJP1.node[94].wlan.mac 	"sent in TXOP " 	0
scalar scenarioPRJP1.node[94].wlan.mac 	"sentWithoutRetry AC 0" 	1097
scalar scenarioPRJP1.node[94].wlan.mac 	"sentWithoutRetry AC 1" 	2
scalar scenarioPRJP1.node[94].wlan.mac 	"sentWithoutRetry AC 2" 	0
scalar scenarioPRJP1.node[94].wlan.mac 	"sentWithoutRetry AC 3" 	0
scalar scenarioPRJP1.node[94].wlan.mac 	"numGivenUp AC 0" 	2492
scalar scenarioPRJP1.node[94].wlan.mac 	"numGivenUp AC 1" 	0
scalar scenarioPRJP1.node[94].wlan.mac 	"numGivenUp AC 2" 	0
scalar scenarioPRJP1.node[94].wlan.mac 	"numGivenUp AC 3" 	0
scalar scenarioPRJP1.node[94].wlan.mac 	"numDropped AC 0" 	0
scalar scenarioPRJP1.node[94].wlan.mac 	"numDropped AC 1" 	0
scalar scenarioPRJP1.node[94].wlan.mac 	"numDropped AC 2" 	0
scalar scenarioPRJP1.node[94].wlan.mac 	"numDropped AC 3" 	0
scalar scenarioPRJP1.node[94].wlan.mac 	rcvdPkFromLL:count 	257532
attr interpolationmode  none
attr source  packetReceivedFromLower
attr title  "packets received from lower layer, count"
scalar scenarioPRJP1.node[94].wlan.mac 	rcvdPkFromLL:sum(packetBytes) 	104417236
attr interpolationmode  none
attr source  packetReceivedFromLower
attr title  "packets received from lower layer, sum(packetBytes)"
scalar scenarioPRJP1.node[94].wlan.mac 	sentDownPk:count 	39319
attr interpolationmode  none
attr source  packetSentToLower
attr title  "packets sent to lower layer, count"
scalar scenarioPRJP1.node[94].wlan.mac 	sentDownPk:sum(packetBytes) 	16290900
attr interpolationmode  none
attr source  packetSentToLower
attr title  "packets sent to lower layer, sum(packetBytes)"
scalar scenarioPRJP1.node[94].wlan.mac 	rcvdPkFromHL:count 	19687
attr interpolationmode  none
attr source  packetReceivedFromUpper
attr title  "packets received from higher layer, count"
scalar scenarioPRJP1.node[94].wlan.mac 	rcvdPkFromHL:sum(packetBytes) 	7105549
attr interpolationmode  none
attr source  packetReceivedFromUpper
attr title  "packets received from higher layer, sum(packetBytes)"
scalar scenarioPRJP1.node[94].wlan.mac 	passedUpPk:count 	53863
attr interpolationmode  none
attr source  packetSentToUpper
attr title  "packets passed to higher layer, count"
scalar scenarioPRJP1.node[94].wlan.mac 	passedUpPk:sum(packetBytes) 	16946419
attr interpolationmode  none
attr source  packetSentToUpper
attr title  "packets passed to higher layer, sum(packetBytes)"
statistic scenarioPRJP1.node[94].wlan.radio 	radioChannel:histogram
field count 1
field mean 3
field stddev nan
field sum 3
field sqrsum 9
field min 3
field max 3
attr interpolationmode  sample-hold
attr source  radioChannelChanged
attr title  "Radio channel, histogram"
bin	-INF	0
bin	2	0
bin	3	1
bin	4	0
scalar scenarioPRJP1.node[94].wlan.radio 	transmissionState:count 	157274
attr interpolationmode  sample-hold
attr source  transmissionStateChanged
attr title  "Radio transmission state, count"
scalar scenarioPRJP1.node[94].wlan.radio 	receptionState:count 	685372
attr interpolationmode  sample-hold
attr source  receptionStateChanged
attr title  "Radio reception state, count"
scalar scenarioPRJP1.node[94].wlan.radio 	radioMode:count 	78639
attr interpolationmode  sample-hold
attr source  radioModeChanged
attr title  "Radio mode, count"
statistic scenarioPRJP1.node[94].wlan.radio 	symbolErrorRate:histogram
field count 0
field mean nan
field stddev nan
field sum 0
field sqrsum 0
field min nan
field max nan
attr source  symbolErrorRate
attr title  "Symbol error rate, histogram"
bin	-INF	0
bin	-0.5	0
bin	-0.46666666666667	0
bin	-0.43333333333333	0
bin	-0.4	0
bin	-0.36666666666667	0
bin	-0.33333333333333	0
bin	-0.3	0
bin	-0.26666666666667	0
bin	-0.23333333333333	0
bin	-0.2	0
bin	-0.16666666666667	0
bin	-0.13333333333333	0
bin	-0.1	0
bin	-0.066666666666667	0
bin	-0.033333333333333	0
bin	0	0
bin	0.033333333333333	0
bin	0.066666666666667	0
bin	0.1	0
bin	0.13333333333333	0
bin	0.16666666666667	0
bin	0.2	0
bin	0.23333333333333	0
bin	0.26666666666667	0
bin	0.3	0
bin	0.33333333333333	0
bin	0.36666666666667	0
bin	0.4	0
bin	0.43333333333333	0
bin	0.46666666666667	0
bin	0.5	0
statistic scenarioPRJP1.node[94].wlan.radio 	bitErrorRate:histogram
field count 0
field mean nan
field stddev nan
field sum 0
field sqrsum 0
field min nan
field max nan
attr source  bitErrorRate
attr title  "Bit error rate, histogram"
bin	-INF	0
bin	-0.5	0
bin	-0.46666666666667	0
bin	-0.43333333333333	0
bin	-0.4	0
bin	-0.36666666666667	0
bin	-0.33333333333333	0
bin	-0.3	0
bin	-0.26666666666667	0
bin	-0.23333333333333	0
bin	-0.2	0
bin	-0.16666666666667	0
bin	-0.13333333333333	0
bin	-0.1	0
bin	-0.066666666666667	0
bin	-0.033333333333333	0
bin	0	0
bin	0.033333333333333	0
bin	0.066666666666667	0
bin	0.1	0
bin	0.13333333333333	0
bin	0.16666666666667	0
bin	0.2	0
bin	0.23333333333333	0
bin	0.26666666666667	0
bin	0.3	0
bin	0.33333333333333	0
bin	0.36666666666667	0
bin	0.4	0
bin	0.43333333333333	0
bin	0.46666666666667	0
bin	0.5	0
statistic scenarioPRJP1.node[94].wlan.radio 	packetErrorRate:histogram
field count 257532
field mean 0.4873447378442
field stddev 0.49019551884767
field sum 125506.86502649
field sqrsum 123047.65829985
field min 0
field max 1
attr source  packetErrorRate
attr title  "Packet error rate, histogram"
bin	-INF	0
bin	-0.5	0
bin	-0.43333333333333	0
bin	-0.36666666666667	0
bin	-0.3	0
bin	-0.23333333333333	0
bin	-0.16666666666667	0
bin	-0.1	0
bin	-0.033333333333333	122276
bin	0.033333333333333	3816
bin	0.1	1901
bin	0.16666666666667	1279
bin	0.23333333333333	1026
bin	0.3	888
bin	0.36666666666667	790
bin	0.43333333333333	695
bin	0.5	647
bin	0.56666666666667	675
bin	0.63333333333333	674
bin	0.7	759
bin	0.76666666666667	798
bin	0.83333333333333	929
bin	0.9	1418
bin	0.96666666666667	118961
bin	1.0333333333333	0
bin	1.1	0
bin	1.1666666666667	0
bin	1.2333333333333	0
bin	1.3	0
bin	1.3666666666667	0
bin	1.4333333333333	0
bin	1.5	0
statistic scenarioPRJP1.node[94].wlan.radio 	minSNIR:histogram
field count 257532
field mean 225.85160341987
field stddev 5130.6476082685
field sum 58164015.131925
field sqrsum 6792265272629.8
field min 9.2861013784385e-05
field max 930825.22922992
attr source  minSNIR
attr title  "Min SNIR, histogram"
bin	-INF	0
bin	-68291.832861376	0
bin	-59186.254869261	0
bin	-50080.676877147	0
bin	-40975.098885032	0
bin	-31869.520892918	0
bin	-22763.942900803	0
bin	-13658.364908689	0
bin	-4552.786916574	256056
bin	4552.7910755405	845
bin	13658.369067655	232
bin	22763.94705977	99
bin	31869.525051884	65
bin	40975.103043999	51
bin	50080.681036113	26
bin	59186.259028228	29
bin	68291.837020342	22
bin	77397.415012457	19
bin	86502.993004572	11
bin	95608.570996686	6
bin	104714.1489888	9
bin	113819.72698092	9
bin	122925.30497303	6
bin	132030.88296514	6
bin	141136.46095726	1
bin	150242.03894937	2
bin	159347.61694149	3
bin	168453.1949336	0
bin	177558.77292572	3
bin	186664.35091783	1
bin	195769.92890995	3
bin	204875.50690206	28
scalar scenarioPRJP1.node[94].lo0.lo 	droppedPkBitError:count 	0
attr interpolationmode  none
attr source  dropPkBitError
attr title  "packets dropped/bit error, count"
scalar scenarioPRJP1.node[94].lo0.lo 	droppedPkBitError:sum(packetBytes) 	0
attr interpolationmode  none
attr source  dropPkBitError
attr title  "packets dropped/bit error, sum(packetBytes)"
scalar scenarioPRJP1.node[94].lo0.lo 	rcvdPkFromHL:count 	0
attr interpolationmode  none
attr source  packetReceivedFromUpper
attr title  "packets received from higher layer, count"
scalar scenarioPRJP1.node[94].lo0.lo 	rcvdPkFromHL:sum(packetBytes) 	0
attr interpolationmode  none
attr source  packetReceivedFromUpper
attr title  "packets received from higher layer, sum(packetBytes)"
scalar scenarioPRJP1.node[94].lo0.lo 	passedUpPk:count 	0
attr interpolationmode  none
attr source  packetSentToUpper
attr title  "packets passed to higher layer, count"
scalar scenarioPRJP1.node[94].lo0.lo 	passedUpPk:sum(packetBytes) 	0
attr interpolationmode  none
attr source  packetSentToUpper
attr title  "packets passed to higher layer, sum(packetBytes)"
