version 2
run AODVRouting-LNS-25n-15-20150704-08:01:00-9565
attr configname AODVRouting-LNS-25n
attr datetime 20150704-08:01:00
attr experiment AODVRouting-LNS-25n
attr inifile omnetpp.ini
attr iterationvars ""
attr iterationvars2 $repetition=15
attr measurement ""
attr network Prj_Part1_propag.scenarioPRJP1
attr processid 9565
attr repetition 15
attr replication #15
attr resultdir results
attr runnumber 15
attr seedset 15

scalar scenarioPRJP1.node[13].app 	"Total sent" 	4426
scalar scenarioPRJP1.node[13].app 	"Total received" 	3837
scalar scenarioPRJP1.node[13].app 	"Total deleted" 	19
scalar scenarioPRJP1.node[13].app 	dropPk:count 	19
attr interpolationmode  none
attr source  dropPk
attr title  "packets dropped, count"
scalar scenarioPRJP1.node[13].app 	dropPk:sum(packetBytes) 	9728
attr interpolationmode  none
attr source  dropPk
attr title  "packets dropped, sum(packetBytes)"
scalar scenarioPRJP1.node[13].app 	outOfOrderPk:count 	217
attr interpolationmode  none
attr source  outOfOrderPk
attr title  "packets received out of order, count"
scalar scenarioPRJP1.node[13].app 	outOfOrderPk:sum(packetBytes) 	111104
attr interpolationmode  none
attr source  outOfOrderPk
attr title  "packets received out of order, sum(packetBytes)"
scalar scenarioPRJP1.node[13].app 	rcvdPk:count 	3837
attr interpolationmode  none
attr source  rcvdPk
attr title  "packets received, count"
scalar scenarioPRJP1.node[13].app 	rcvdPk:sum(packetBytes) 	1964544
attr interpolationmode  none
attr source  rcvdPk
attr title  "packets received, sum(packetBytes)"
statistic scenarioPRJP1.node[13].app 	endToEndDelay:histogram
field count 3837
field mean 0.49348589531653
field stddev 1.8798148820114
field sum 1893.5053803295
field sqrsum 14489.706705962
field min 0.000891176994
field max 19.12587208588
attr interpolationmode  none
attr source  messageAge(rcvdPk)
attr title  "delay, histogram"
attr unit  s
bin	-INF	0
bin	-1.4069896750875	0
bin	-1.2192693189884	0
bin	-1.0315489628892	0
bin	-0.8438286067901	0
bin	-0.65610825069097	0
bin	-0.46838789459183	0
bin	-0.2806675384927	0
bin	-0.092947182393567	3143
bin	0.094773173705567	171
bin	0.2824935298047	103
bin	0.47021388590383	8
bin	0.65793424200297	51
bin	0.8456545981021	39
bin	1.0333749542012	25
bin	1.2210953103004	5
bin	1.4088156663995	42
bin	1.5965360224986	6
bin	1.7842563785978	2
bin	1.9719767346969	16
bin	2.159697090796	25
bin	2.3474174468952	9
bin	2.5351378029943	5
bin	2.7228581590934	5
bin	2.9105785151926	6
bin	3.0982988712917	20
bin	3.2860192273908	6
bin	3.47373958349	5
bin	3.6614599395891	2
bin	3.8491802956882	3
bin	4.0369006517874	5
bin	4.2246210078865	135
scalar scenarioPRJP1.node[13].app 	sentPk:count 	4426
attr interpolationmode  none
attr source  sentPk
attr title  "packets sent, count"
scalar scenarioPRJP1.node[13].app 	sentPk:sum(packetBytes) 	2266112
attr interpolationmode  none
attr source  sentPk
attr title  "packets sent, sum(packetBytes)"
scalar scenarioPRJP1.node[13].udp 	droppedPkBadChecksum:count 	0
attr interpolationmode  none
attr title  "packets dropped (checksum error), count"
scalar scenarioPRJP1.node[13].udp 	droppedPkWrongPort:count 	0
attr interpolationmode  none
attr title  "packets dropped (wrong port), count"
scalar scenarioPRJP1.node[13].udp 	passedUpPk:count 	4073
attr interpolationmode  none
attr title  "packets passed up, count"
scalar scenarioPRJP1.node[13].udp 	rcvdPk:count 	4073
attr interpolationmode  none
attr source  rcvdPk
attr title  "packets received, count"
scalar scenarioPRJP1.node[13].udp 	rcvdPk:sum(packetBytes) 	2117960
attr interpolationmode  none
attr source  rcvdPk
attr title  "packets received, sum(packetBytes)"
scalar scenarioPRJP1.node[13].udp 	sentPk:count 	4425
attr interpolationmode  none
attr source  sentPk
attr title  "packets sent, count"
scalar scenarioPRJP1.node[13].udp 	sentPk:sum(packetBytes) 	2301000
attr interpolationmode  none
attr source  sentPk
attr title  "packets sent, sum(packetBytes)"
scalar scenarioPRJP1.node[13].networkLayer.arp 	failedARPResolution:count 	4
attr title  "ARP failed resolutions, count"
scalar scenarioPRJP1.node[13].networkLayer.arp 	completedARPResolution:count 	1267
attr title  "ARP completed resolutions, count"
scalar scenarioPRJP1.node[13].networkLayer.arp 	initiatedARPResolution:count 	54
attr title  "ARP initiated resolutions, count"
scalar scenarioPRJP1.node[13].networkLayer.arp 	sentReply:count 	109
attr title  "ARP replies sent, count"
scalar scenarioPRJP1.node[13].networkLayer.arp 	sentReq:count 	85
attr title  "ARP request sent, count"
scalar scenarioPRJP1.node[13].mobility 	startTime 	2.5
scalar scenarioPRJP1.node[13].mobility 	totalTime 	1590.4
scalar scenarioPRJP1.node[13].mobility 	stopTime 	1593
scalar scenarioPRJP1.node[13].mobility 	minSpeed 	2.4756740859549e-13
scalar scenarioPRJP1.node[13].mobility 	maxSpeed 	21.661737573249
scalar scenarioPRJP1.node[13].mobility 	totalDistance 	17878.938842718
scalar scenarioPRJP1.node[13].mobility 	totalCO2Emission 	5135.6902928812
scalar scenarioPRJP1.node[13].wlan[0].mgmt 	dataQueueLen:max 	13
attr interpolationmode  sample-hold
attr title  "data queue length, max"
scalar scenarioPRJP1.node[13].wlan[0].mgmt 	dataQueueLen:timeavg 	0
attr interpolationmode  sample-hold
attr title  "data queue length, timeavg"
scalar scenarioPRJP1.node[13].wlan[0].mgmt 	dropPkByQueue:count 	0
attr interpolationmode  none
attr source  dropPkByQueue
attr title  "packets dropped by queue, count"
scalar scenarioPRJP1.node[13].wlan[0].mgmt 	dropPkByQueue:sum(packetBytes) 	0
attr interpolationmode  none
attr source  dropPkByQueue
attr title  "packets dropped by queue, sum(packetBytes)"
scalar scenarioPRJP1.node[13].wlan[0].mac 	"number of received packets" 	24814
scalar scenarioPRJP1.node[13].wlan[0].mac 	"number of collisions" 	214718
scalar scenarioPRJP1.node[13].wlan[0].mac 	"number of internal collisions" 	2
scalar scenarioPRJP1.node[13].wlan[0].mac 	"number of retry for AC 0" 	20947
scalar scenarioPRJP1.node[13].wlan[0].mac 	"number of retry for AC 1" 	12
scalar scenarioPRJP1.node[13].wlan[0].mac 	"number of retry for AC 2" 	0
scalar scenarioPRJP1.node[13].wlan[0].mac 	"number of retry for AC 3" 	0
scalar scenarioPRJP1.node[13].wlan[0].mac 	"sent and received bits" 	54478176
scalar scenarioPRJP1.node[13].wlan[0].mac 	"sent packet within AC 0" 	22406
scalar scenarioPRJP1.node[13].wlan[0].mac 	"sent packet within AC 1" 	54
scalar scenarioPRJP1.node[13].wlan[0].mac 	"sent packet within AC 2" 	0
scalar scenarioPRJP1.node[13].wlan[0].mac 	"sent packet within AC 3" 	0
scalar scenarioPRJP1.node[13].wlan[0].mac 	"sent in TXOP " 	0
scalar scenarioPRJP1.node[13].wlan[0].mac 	"sentWithoutRetry AC 0" 	14577
scalar scenarioPRJP1.node[13].wlan[0].mac 	"sentWithoutRetry AC 1" 	43
scalar scenarioPRJP1.node[13].wlan[0].mac 	"sentWithoutRetry AC 2" 	0
scalar scenarioPRJP1.node[13].wlan[0].mac 	"sentWithoutRetry AC 3" 	0
scalar scenarioPRJP1.node[13].wlan[0].mac 	"numGivenUp AC 0" 	588
scalar scenarioPRJP1.node[13].wlan[0].mac 	"numGivenUp AC 1" 	0
scalar scenarioPRJP1.node[13].wlan[0].mac 	"numGivenUp AC 2" 	0
scalar scenarioPRJP1.node[13].wlan[0].mac 	"numGivenUp AC 3" 	0
scalar scenarioPRJP1.node[13].wlan[0].mac 	"numDropped AC 0" 	0
scalar scenarioPRJP1.node[13].wlan[0].mac 	"numDropped AC 1" 	0
scalar scenarioPRJP1.node[13].wlan[0].mac 	"numDropped AC 2" 	0
scalar scenarioPRJP1.node[13].wlan[0].mac 	"numDropped AC 3" 	0
scalar scenarioPRJP1.node[13].wlan[0].mac 	rcvdPkFromLL:count 	1355877
attr interpolationmode  none
attr source  packetReceivedFromLower
attr title  "packets received from lower layer, count"
scalar scenarioPRJP1.node[13].wlan[0].mac 	rcvdPkFromLL:sum(packetBytes) 	245072776
attr interpolationmode  none
attr source  packetReceivedFromLower
attr title  "packets received from lower layer, sum(packetBytes)"
scalar scenarioPRJP1.node[13].wlan[0].mac 	sentDownPk:count 	83647
attr interpolationmode  none
attr source  packetSentToLower
attr title  "packets sent to lower layer, count"
scalar scenarioPRJP1.node[13].wlan[0].mac 	sentDownPk:sum(packetBytes) 	15530904
attr interpolationmode  none
attr source  packetSentToLower
attr title  "packets sent to lower layer, sum(packetBytes)"
scalar scenarioPRJP1.node[13].wlan[0].mac 	rcvdPkFromHL:count 	37876
attr interpolationmode  none
attr source  packetReceivedFromUpper
attr title  "packets received from higher layer, count"
scalar scenarioPRJP1.node[13].wlan[0].mac 	rcvdPkFromHL:sum(packetBytes) 	7089852
attr interpolationmode  none
attr source  packetReceivedFromUpper
attr title  "packets received from higher layer, sum(packetBytes)"
scalar scenarioPRJP1.node[13].wlan[0].mac 	passedUpPk:count 	265999
attr interpolationmode  none
attr source  packetSentToUpper
attr title  "packets passed to higher layer, count"
scalar scenarioPRJP1.node[13].wlan[0].mac 	passedUpPk:sum(packetBytes) 	26701440
attr interpolationmode  none
attr source  packetSentToUpper
attr title  "packets passed to higher layer, sum(packetBytes)"
statistic scenarioPRJP1.node[13].wlan[0].radio 	radioChannel:histogram
field count 1
field mean 3
field stddev -nan
field sum 3
field sqrsum 9
field min 3
field max 3
attr interpolationmode  sample-hold
attr source  radioChannelChanged
attr title  "Radio channel, histogram"
bin	-INF	0
bin	2	0
bin	3	1
bin	4	0
scalar scenarioPRJP1.node[13].wlan[0].radio 	transmissionState:count 	334588
attr interpolationmode  sample-hold
attr source  transmissionStateChanged
attr title  "Radio transmission state, count"
scalar scenarioPRJP1.node[13].wlan[0].radio 	receptionState:count 	3059592
attr interpolationmode  sample-hold
attr source  receptionStateChanged
attr title  "Radio reception state, count"
scalar scenarioPRJP1.node[13].wlan[0].radio 	radioMode:count 	167296
attr interpolationmode  sample-hold
attr source  radioModeChanged
attr title  "Radio mode, count"
statistic scenarioPRJP1.node[13].wlan[0].radio 	symbolErrorRate:histogram
field count 0
field mean -nan
field stddev -nan
field sum 0
field sqrsum 0
field min -nan
field max -nan
attr source  symbolErrorRate
attr title  "Symbol error rate, histogram"
bin	-INF	0
bin	-0.5	0
bin	-0.46666666666667	0
bin	-0.43333333333333	0
bin	-0.4	0
bin	-0.36666666666667	0
bin	-0.33333333333333	0
bin	-0.3	0
bin	-0.26666666666667	0
bin	-0.23333333333333	0
bin	-0.2	0
bin	-0.16666666666667	0
bin	-0.13333333333333	0
bin	-0.1	0
bin	-0.066666666666667	0
bin	-0.033333333333333	0
bin	0	0
bin	0.033333333333333	0
bin	0.066666666666667	0
bin	0.1	0
bin	0.13333333333333	0
bin	0.16666666666667	0
bin	0.2	0
bin	0.23333333333333	0
bin	0.26666666666667	0
bin	0.3	0
bin	0.33333333333333	0
bin	0.36666666666667	0
bin	0.4	0
bin	0.43333333333333	0
bin	0.46666666666667	0
bin	0.5	0
statistic scenarioPRJP1.node[13].wlan[0].radio 	bitErrorRate:histogram
field count 0
field mean -nan
field stddev -nan
field sum 0
field sqrsum 0
field min -nan
field max -nan
attr source  bitErrorRate
attr title  "Bit error rate, histogram"
bin	-INF	0
bin	-0.5	0
bin	-0.46666666666667	0
bin	-0.43333333333333	0
bin	-0.4	0
bin	-0.36666666666667	0
bin	-0.33333333333333	0
bin	-0.3	0
bin	-0.26666666666667	0
bin	-0.23333333333333	0
bin	-0.2	0
bin	-0.16666666666667	0
bin	-0.13333333333333	0
bin	-0.1	0
bin	-0.066666666666667	0
bin	-0.033333333333333	0
bin	0	0
bin	0.033333333333333	0
bin	0.066666666666667	0
bin	0.1	0
bin	0.13333333333333	0
bin	0.16666666666667	0
bin	0.2	0
bin	0.23333333333333	0
bin	0.26666666666667	0
bin	0.3	0
bin	0.33333333333333	0
bin	0.36666666666667	0
bin	0.4	0
bin	0.43333333333333	0
bin	0.46666666666667	0
bin	0.5	0
statistic scenarioPRJP1.node[13].wlan[0].radio 	packetErrorRate:histogram
field count 1355877
field mean 0.15232035728195
field stddev 0.35612928423355
field sum 206527.66907038
field sqrsum 203421.50063336
field min 0
field max 1
attr source  packetErrorRate
attr title  "Packet error rate, histogram"
bin	-INF	0
bin	-0.5	0
bin	-0.43333333333333	0
bin	-0.36666666666667	0
bin	-0.3	0
bin	-0.23333333333333	0
bin	-0.16666666666667	0
bin	-0.1	0
bin	-0.033333333333333	1136729
bin	0.033333333333333	4993
bin	0.1	2496
bin	0.16666666666667	1723
bin	0.23333333333333	1338
bin	0.3	1194
bin	0.36666666666667	963
bin	0.43333333333333	894
bin	0.5	839
bin	0.56666666666667	755
bin	0.63333333333333	831
bin	0.7	855
bin	0.76666666666667	932
bin	0.83333333333333	1120
bin	0.9	1772
bin	0.96666666666667	198443
bin	1.0333333333333	0
bin	1.1	0
bin	1.1666666666667	0
bin	1.2333333333333	0
bin	1.3	0
bin	1.3666666666667	0
bin	1.4333333333333	0
bin	1.5	0
statistic scenarioPRJP1.node[13].wlan[0].radio 	minSNIR:histogram
field count 1355877
field mean 32759.341603057
field stddev 649081.45676305
field sum 44417637814.729
field sqrsum 5.7269478660343e+17
field min 1.3406419870011e-05
field max 114946438.78636
attr source  minSNIR
attr title  "Min SNIR, histogram"
bin	-INF	0
bin	-3642.2277241182	0
bin	-3156.587071046	0
bin	-2670.9464179739	0
bin	-2185.3057649018	0
bin	-1699.6651118297	0
bin	-1214.0244587576	0
bin	-728.38380568543	0
bin	-242.74315261331	321672
bin	242.89750045881	236964
bin	728.53815353093	194947
bin	1214.1788066031	128360
bin	1699.8194596752	88640
bin	2185.4601127473	64401
bin	2671.1007658194	48860
bin	3156.7414188915	38084
bin	3642.3820719637	29704
bin	4128.0227250358	24045
bin	4613.6633781079	19818
bin	5099.30403118	15946
bin	5584.9446842521	13468
bin	6070.5853373243	11193
bin	6556.2259903964	9659
bin	7041.8666434685	8111
bin	7527.5072965406	7021
bin	8013.1479496127	6234
bin	8498.7886026849	5314
bin	8984.429255757	4685
bin	9470.0699088291	4062
bin	9955.7105619012	3749
bin	10441.351214973	3291
bin	10926.991868045	67649
scalar scenarioPRJP1.node[13].lo0.lo 	droppedPkBitError:count 	0
attr interpolationmode  none
attr source  dropPkBitError
attr title  "packets dropped/bit error, count"
scalar scenarioPRJP1.node[13].lo0.lo 	droppedPkBitError:sum(packetBytes) 	0
attr interpolationmode  none
attr source  dropPkBitError
attr title  "packets dropped/bit error, sum(packetBytes)"
scalar scenarioPRJP1.node[13].lo0.lo 	rcvdPkFromHL:count 	5
attr interpolationmode  none
attr source  packetReceivedFromUpper
attr title  "packets received from higher layer, count"
scalar scenarioPRJP1.node[13].lo0.lo 	rcvdPkFromHL:sum(packetBytes) 	280
attr interpolationmode  none
attr source  packetReceivedFromUpper
attr title  "packets received from higher layer, sum(packetBytes)"
scalar scenarioPRJP1.node[13].lo0.lo 	passedUpPk:count 	5
attr interpolationmode  none
attr source  packetSentToUpper
attr title  "packets passed to higher layer, count"
scalar scenarioPRJP1.node[13].lo0.lo 	passedUpPk:sum(packetBytes) 	280
attr interpolationmode  none
attr source  packetSentToUpper
attr title  "packets passed to higher layer, sum(packetBytes)"
scalar scenarioPRJP1.node[6].app 	"Total sent" 	4872
scalar scenarioPRJP1.node[6].app 	"Total received" 	4127
scalar scenarioPRJP1.node[6].app 	"Total deleted" 	17
scalar scenarioPRJP1.node[6].app 	dropPk:count 	17
attr interpolationmode  none
attr source  dropPk
attr title  "packets dropped, count"
scalar scenarioPRJP1.node[6].app 	dropPk:sum(packetBytes) 	8704
attr interpolationmode  none
attr source  dropPk
attr title  "packets dropped, sum(packetBytes)"
scalar scenarioPRJP1.node[6].app 	outOfOrderPk:count 	317
attr interpolationmode  none
attr source  outOfOrderPk
attr title  "packets received out of order, count"
scalar scenarioPRJP1.node[6].app 	outOfOrderPk:sum(packetBytes) 	162304
attr interpolationmode  none
attr source  outOfOrderPk
attr title  "packets received out of order, sum(packetBytes)"
scalar scenarioPRJP1.node[6].app 	rcvdPk:count 	4127
attr interpolationmode  none
attr source  rcvdPk
attr title  "packets received, count"
scalar scenarioPRJP1.node[6].app 	rcvdPk:sum(packetBytes) 	2113024
attr interpolationmode  none
attr source  rcvdPk
attr title  "packets received, sum(packetBytes)"
statistic scenarioPRJP1.node[6].app 	endToEndDelay:histogram
field count 4127
field mean 0.56595719957583
field stddev 2.0159077484559
field sum 2335.7053626494
field sqrsum 18089.494857553
field min 0.000891060087
field max 19.181994055927
attr interpolationmode  none
attr source  messageAge(rcvdPk)
attr title  "delay, histogram"
attr unit  s
bin	-INF	0
bin	-1.003806774447	0
bin	-0.8698467289114	0
bin	-0.7358866833758	0
bin	-0.6019266378402	0
bin	-0.4679665923046	0
bin	-0.334006546769	0
bin	-0.2000465012334	0
bin	-0.0660864556978	2891
bin	0.0678735898378	611
bin	0.2018336353734	42
bin	0.335793680909	106
bin	0.4697537264446	7
bin	0.6037137719802	9
bin	0.7376738175158	80
bin	0.8716338630514	18
bin	1.005593908587	10
bin	1.1395539541226	6
bin	1.2735139996582	4
bin	1.4074740451938	37
bin	1.5414340907294	6
bin	1.675394136265	0
bin	1.8093541818006	7
bin	1.9433142273362	5
bin	2.0772742728718	4
bin	2.2112343184074	30
bin	2.345194363943	8
bin	2.4791544094786	2
bin	2.6131144550142	5
bin	2.7470745005498	4
bin	2.8810345460854	2
bin	3.014994591621	233
scalar scenarioPRJP1.node[6].app 	sentPk:count 	4872
attr interpolationmode  none
attr source  sentPk
attr title  "packets sent, count"
scalar scenarioPRJP1.node[6].app 	sentPk:sum(packetBytes) 	2494464
attr interpolationmode  none
attr source  sentPk
attr title  "packets sent, sum(packetBytes)"
scalar scenarioPRJP1.node[6].udp 	droppedPkBadChecksum:count 	0
attr interpolationmode  none
attr title  "packets dropped (checksum error), count"
scalar scenarioPRJP1.node[6].udp 	droppedPkWrongPort:count 	0
attr interpolationmode  none
attr title  "packets dropped (wrong port), count"
scalar scenarioPRJP1.node[6].udp 	passedUpPk:count 	4461
attr interpolationmode  none
attr title  "packets passed up, count"
scalar scenarioPRJP1.node[6].udp 	rcvdPk:count 	4461
attr interpolationmode  none
attr source  rcvdPk
attr title  "packets received, count"
scalar scenarioPRJP1.node[6].udp 	rcvdPk:sum(packetBytes) 	2319720
attr interpolationmode  none
attr source  rcvdPk
attr title  "packets received, sum(packetBytes)"
scalar scenarioPRJP1.node[6].udp 	sentPk:count 	4872
attr interpolationmode  none
attr source  sentPk
attr title  "packets sent, count"
scalar scenarioPRJP1.node[6].udp 	sentPk:sum(packetBytes) 	2533440
attr interpolationmode  none
attr source  sentPk
attr title  "packets sent, sum(packetBytes)"
scalar scenarioPRJP1.node[6].networkLayer.arp 	failedARPResolution:count 	11
attr title  "ARP failed resolutions, count"
scalar scenarioPRJP1.node[6].networkLayer.arp 	completedARPResolution:count 	1344
attr title  "ARP completed resolutions, count"
scalar scenarioPRJP1.node[6].networkLayer.arp 	initiatedARPResolution:count 	89
attr title  "ARP initiated resolutions, count"
scalar scenarioPRJP1.node[6].networkLayer.arp 	sentReply:count 	11
attr title  "ARP replies sent, count"
scalar scenarioPRJP1.node[6].networkLayer.arp 	sentReq:count 	160
attr title  "ARP request sent, count"
scalar scenarioPRJP1.node[6].mobility 	startTime 	0.1
scalar scenarioPRJP1.node[6].mobility 	totalTime 	1744.2
scalar scenarioPRJP1.node[6].mobility 	stopTime 	1744.4
scalar scenarioPRJP1.node[6].mobility 	minSpeed 	0
scalar scenarioPRJP1.node[6].mobility 	maxSpeed 	18.737234170837
scalar scenarioPRJP1.node[6].mobility 	totalDistance 	19784.375490053
scalar scenarioPRJP1.node[6].mobility 	totalCO2Emission 	5095.044982161
scalar scenarioPRJP1.node[6].wlan[0].mgmt 	dataQueueLen:max 	22
attr interpolationmode  sample-hold
attr title  "data queue length, max"
scalar scenarioPRJP1.node[6].wlan[0].mgmt 	dataQueueLen:timeavg 	0
attr interpolationmode  sample-hold
attr title  "data queue length, timeavg"
scalar scenarioPRJP1.node[6].wlan[0].mgmt 	dropPkByQueue:count 	0
attr interpolationmode  none
attr source  dropPkByQueue
attr title  "packets dropped by queue, count"
scalar scenarioPRJP1.node[6].wlan[0].mgmt 	dropPkByQueue:sum(packetBytes) 	0
attr interpolationmode  none
attr source  dropPkByQueue
attr title  "packets dropped by queue, sum(packetBytes)"
scalar scenarioPRJP1.node[6].wlan[0].mac 	"number of received packets" 	18974
scalar scenarioPRJP1.node[6].wlan[0].mac 	"number of collisions" 	227534
scalar scenarioPRJP1.node[6].wlan[0].mac 	"number of internal collisions" 	2
scalar scenarioPRJP1.node[6].wlan[0].mac 	"number of retry for AC 0" 	23964
scalar scenarioPRJP1.node[6].wlan[0].mac 	"number of retry for AC 1" 	22
scalar scenarioPRJP1.node[6].wlan[0].mac 	"number of retry for AC 2" 	0
scalar scenarioPRJP1.node[6].wlan[0].mac 	"number of retry for AC 3" 	0
scalar scenarioPRJP1.node[6].wlan[0].mac 	"sent and received bits" 	49089632
scalar scenarioPRJP1.node[6].wlan[0].mac 	"sent packet within AC 0" 	15445
scalar scenarioPRJP1.node[6].wlan[0].mac 	"sent packet within AC 1" 	19
scalar scenarioPRJP1.node[6].wlan[0].mac 	"sent packet within AC 2" 	0
scalar scenarioPRJP1.node[6].wlan[0].mac 	"sent packet within AC 3" 	0
scalar scenarioPRJP1.node[6].wlan[0].mac 	"sent in TXOP " 	0
scalar scenarioPRJP1.node[6].wlan[0].mac 	"sentWithoutRetry AC 0" 	8438
scalar scenarioPRJP1.node[6].wlan[0].mac 	"sentWithoutRetry AC 1" 	11
scalar scenarioPRJP1.node[6].wlan[0].mac 	"sentWithoutRetry AC 2" 	0
scalar scenarioPRJP1.node[6].wlan[0].mac 	"sentWithoutRetry AC 3" 	0
scalar scenarioPRJP1.node[6].wlan[0].mac 	"numGivenUp AC 0" 	955
scalar scenarioPRJP1.node[6].wlan[0].mac 	"numGivenUp AC 1" 	1
scalar scenarioPRJP1.node[6].wlan[0].mac 	"numGivenUp AC 2" 	0
scalar scenarioPRJP1.node[6].wlan[0].mac 	"numGivenUp AC 3" 	0
scalar scenarioPRJP1.node[6].wlan[0].mac 	"numDropped AC 0" 	0
scalar scenarioPRJP1.node[6].wlan[0].mac 	"numDropped AC 1" 	0
scalar scenarioPRJP1.node[6].wlan[0].mac 	"numDropped AC 2" 	0
scalar scenarioPRJP1.node[6].wlan[0].mac 	"numDropped AC 3" 	0
scalar scenarioPRJP1.node[6].wlan[0].mac 	rcvdPkFromLL:count 	1474959
attr interpolationmode  none
attr source  packetReceivedFromLower
attr title  "packets received from lower layer, count"
scalar scenarioPRJP1.node[6].wlan[0].mac 	rcvdPkFromLL:sum(packetBytes) 	265214082
attr interpolationmode  none
attr source  packetReceivedFromLower
attr title  "packets received from lower layer, sum(packetBytes)"
scalar scenarioPRJP1.node[6].wlan[0].mac 	sentDownPk:count 	75909
attr interpolationmode  none
attr source  packetSentToLower
attr title  "packets sent to lower layer, count"
scalar scenarioPRJP1.node[6].wlan[0].mac 	sentDownPk:sum(packetBytes) 	16487316
attr interpolationmode  none
attr source  packetSentToLower
attr title  "packets sent to lower layer, sum(packetBytes)"
scalar scenarioPRJP1.node[6].wlan[0].mac 	rcvdPkFromHL:count 	32951
attr interpolationmode  none
attr source  packetReceivedFromUpper
attr title  "packets received from higher layer, count"
scalar scenarioPRJP1.node[6].wlan[0].mac 	rcvdPkFromHL:sum(packetBytes) 	6578628
attr interpolationmode  none
attr source  packetReceivedFromUpper
attr title  "packets received from higher layer, sum(packetBytes)"
scalar scenarioPRJP1.node[6].wlan[0].mac 	passedUpPk:count 	282930
attr interpolationmode  none
attr source  packetSentToUpper
attr title  "packets passed to higher layer, count"
scalar scenarioPRJP1.node[6].wlan[0].mac 	passedUpPk:sum(packetBytes) 	28060960
attr interpolationmode  none
attr source  packetSentToUpper
attr title  "packets passed to higher layer, sum(packetBytes)"
statistic scenarioPRJP1.node[6].wlan[0].radio 	radioChannel:histogram
field count 1
field mean 3
field stddev -nan
field sum 3
field sqrsum 9
field min 3
field max 3
attr interpolationmode  sample-hold
attr source  radioChannelChanged
attr title  "Radio channel, histogram"
bin	-INF	0
bin	2	0
bin	3	1
bin	4	0
scalar scenarioPRJP1.node[6].wlan[0].radio 	transmissionState:count 	303636
attr interpolationmode  sample-hold
attr source  transmissionStateChanged
attr title  "Radio transmission state, count"
scalar scenarioPRJP1.node[6].wlan[0].radio 	receptionState:count 	3296457
attr interpolationmode  sample-hold
attr source  receptionStateChanged
attr title  "Radio reception state, count"
scalar scenarioPRJP1.node[6].wlan[0].radio 	radioMode:count 	151820
attr interpolationmode  sample-hold
attr source  radioModeChanged
attr title  "Radio mode, count"
statistic scenarioPRJP1.node[6].wlan[0].radio 	symbolErrorRate:histogram
field count 0
field mean -nan
field stddev -nan
field sum 0
field sqrsum 0
field min -nan
field max -nan
attr source  symbolErrorRate
attr title  "Symbol error rate, histogram"
bin	-INF	0
bin	-0.5	0
bin	-0.46666666666667	0
bin	-0.43333333333333	0
bin	-0.4	0
bin	-0.36666666666667	0
bin	-0.33333333333333	0
bin	-0.3	0
bin	-0.26666666666667	0
bin	-0.23333333333333	0
bin	-0.2	0
bin	-0.16666666666667	0
bin	-0.13333333333333	0
bin	-0.1	0
bin	-0.066666666666667	0
bin	-0.033333333333333	0
bin	0	0
bin	0.033333333333333	0
bin	0.066666666666667	0
bin	0.1	0
bin	0.13333333333333	0
bin	0.16666666666667	0
bin	0.2	0
bin	0.23333333333333	0
bin	0.26666666666667	0
bin	0.3	0
bin	0.33333333333333	0
bin	0.36666666666667	0
bin	0.4	0
bin	0.43333333333333	0
bin	0.46666666666667	0
bin	0.5	0
statistic scenarioPRJP1.node[6].wlan[0].radio 	bitErrorRate:histogram
field count 0
field mean -nan
field stddev -nan
field sum 0
field sqrsum 0
field min -nan
field max -nan
attr source  bitErrorRate
attr title  "Bit error rate, histogram"
bin	-INF	0
bin	-0.5	0
bin	-0.46666666666667	0
bin	-0.43333333333333	0
bin	-0.4	0
bin	-0.36666666666667	0
bin	-0.33333333333333	0
bin	-0.3	0
bin	-0.26666666666667	0
bin	-0.23333333333333	0
bin	-0.2	0
bin	-0.16666666666667	0
bin	-0.13333333333333	0
bin	-0.1	0
bin	-0.066666666666667	0
bin	-0.033333333333333	0
bin	0	0
bin	0.033333333333333	0
bin	0.066666666666667	0
bin	0.1	0
bin	0.13333333333333	0
bin	0.16666666666667	0
bin	0.2	0
bin	0.23333333333333	0
bin	0.26666666666667	0
bin	0.3	0
bin	0.33333333333333	0
bin	0.36666666666667	0
bin	0.4	0
bin	0.43333333333333	0
bin	0.46666666666667	0
bin	0.5	0
statistic scenarioPRJP1.node[6].wlan[0].radio 	packetErrorRate:histogram
field count 1474959
field mean 0.14848523791859
field stddev 0.35240749272262
field sum 219009.63803517
field sqrsum 215696.26755379
field min 0
field max 1
attr source  packetErrorRate
attr title  "Packet error rate, histogram"
bin	-INF	0
bin	-0.5	0
bin	-0.43333333333333	0
bin	-0.36666666666667	0
bin	-0.3	0
bin	-0.23333333333333	0
bin	-0.16666666666667	0
bin	-0.1	0
bin	-0.033333333333333	1242690
bin	0.033333333333333	5179
bin	0.1	2588
bin	0.16666666666667	1825
bin	0.23333333333333	1488
bin	0.3	1152
bin	0.36666666666667	1017
bin	0.43333333333333	1014
bin	0.5	937
bin	0.56666666666667	908
bin	0.63333333333333	831
bin	0.7	864
bin	0.76666666666667	999
bin	0.83333333333333	1227
bin	0.9	1905
bin	0.96666666666667	210335
bin	1.0333333333333	0
bin	1.1	0
bin	1.1666666666667	0
bin	1.2333333333333	0
bin	1.3	0
bin	1.3666666666667	0
bin	1.4333333333333	0
bin	1.5	0
statistic scenarioPRJP1.node[6].wlan[0].radio 	minSNIR:histogram
field count 1474959
field mean 85371.299602898
field stddev 2176390.9271249
field sum 125919166690.99
field sqrsum 6.9971502072672e+18
field min 1.1078601918563e-06
field max 841353865.27196
attr source  minSNIR
attr title  "Min SNIR, histogram"
bin	-INF	0
bin	-5422.691310311	0
bin	-4699.6489054243	0
bin	-3976.6065005376	0
bin	-3253.5640956509	0
bin	-2530.5216907641	0
bin	-1807.4792858774	0
bin	-1084.4368809907	0
bin	-361.39447610396	382887
bin	361.64792878276	446639
bin	1084.6903336695	206611
bin	1807.7327385562	110804
bin	2530.7751434429	67197
bin	3253.8175483297	44974
bin	3976.8599532164	31542
bin	4699.9023581031	23055
bin	5422.9447629898	17737
bin	6145.9871678766	13610
bin	6869.0295727633	10859
bin	7592.07197765	8743
bin	8315.1143825367	7184
bin	9038.1567874234	5947
bin	9761.1991923102	5011
bin	10484.241597197	4238
bin	11207.284002084	3753
bin	11930.32640697	3165
bin	12653.368811857	2848
bin	13376.411216744	2500
bin	14099.453621631	2271
bin	14822.496026517	2006
bin	15545.538431404	1783
bin	16268.580836291	69595
scalar scenarioPRJP1.node[6].lo0.lo 	droppedPkBitError:count 	0
attr interpolationmode  none
attr source  dropPkBitError
attr title  "packets dropped/bit error, count"
scalar scenarioPRJP1.node[6].lo0.lo 	droppedPkBitError:sum(packetBytes) 	0
attr interpolationmode  none
attr source  dropPkBitError
attr title  "packets dropped/bit error, sum(packetBytes)"
scalar scenarioPRJP1.node[6].lo0.lo 	rcvdPkFromHL:count 	3
attr interpolationmode  none
attr source  packetReceivedFromUpper
attr title  "packets received from higher layer, count"
scalar scenarioPRJP1.node[6].lo0.lo 	rcvdPkFromHL:sum(packetBytes) 	168
attr interpolationmode  none
attr source  packetReceivedFromUpper
attr title  "packets received from higher layer, sum(packetBytes)"
scalar scenarioPRJP1.node[6].lo0.lo 	passedUpPk:count 	3
attr interpolationmode  none
attr source  packetSentToUpper
attr title  "packets passed to higher layer, count"
scalar scenarioPRJP1.node[6].lo0.lo 	passedUpPk:sum(packetBytes) 	168
attr interpolationmode  none
attr source  packetSentToUpper
attr title  "packets passed to higher layer, sum(packetBytes)"
scalar scenarioPRJP1.radioMedium.propagation 	"Arrival computation count" 	51238475
scalar scenarioPRJP1.radioMedium 	"transmission count" 	2148644
scalar scenarioPRJP1.radioMedium 	"radio frame send count" 	51238475
scalar scenarioPRJP1.radioMedium 	"reception computation count" 	51106524
scalar scenarioPRJP1.radioMedium 	"interference computation count" 	142837496
scalar scenarioPRJP1.radioMedium 	"reception decision computation count" 	38451817
scalar scenarioPRJP1.radioMedium 	"listening decision computation count" 	53730693
scalar scenarioPRJP1.radioMedium 	"reception cache hit" 	79.816253887107
attr unit  %
scalar scenarioPRJP1.radioMedium 	"interference cache hit" 	50
attr unit  %
scalar scenarioPRJP1.radioMedium 	"noise cache hit" 	0
attr unit  %
scalar scenarioPRJP1.radioMedium 	"snir cache hit" 	0
attr unit  %
scalar scenarioPRJP1.radioMedium 	"reception decision cache hit" 	0
attr unit  %
scalar scenarioPRJP1.node[0].app 	"Total sent" 	5035
scalar scenarioPRJP1.node[0].app 	"Total received" 	4082
scalar scenarioPRJP1.node[0].app 	"Total deleted" 	22
scalar scenarioPRJP1.node[0].app 	dropPk:count 	22
attr interpolationmode  none
attr source  dropPk
attr title  "packets dropped, count"
scalar scenarioPRJP1.node[0].app 	dropPk:sum(packetBytes) 	11264
attr interpolationmode  none
attr source  dropPk
attr title  "packets dropped, sum(packetBytes)"
scalar scenarioPRJP1.node[0].app 	outOfOrderPk:count 	315
attr interpolationmode  none
attr source  outOfOrderPk
attr title  "packets received out of order, count"
scalar scenarioPRJP1.node[0].app 	outOfOrderPk:sum(packetBytes) 	161280
attr interpolationmode  none
attr source  outOfOrderPk
attr title  "packets received out of order, sum(packetBytes)"
scalar scenarioPRJP1.node[0].app 	rcvdPk:count 	4082
attr interpolationmode  none
attr source  rcvdPk
attr title  "packets received, count"
scalar scenarioPRJP1.node[0].app 	rcvdPk:sum(packetBytes) 	2089984
attr interpolationmode  none
attr source  rcvdPk
attr title  "packets received, sum(packetBytes)"
statistic scenarioPRJP1.node[0].app 	endToEndDelay:histogram
field count 4082
field mean 0.62036264975634
field stddev 2.1926773831071
field sum 2532.3203363054
field sqrsum 21191.727942037
field min 0.000888581118
field max 19.058018952695
attr interpolationmode  none
attr source  messageAge(rcvdPk)
attr title  "delay, histogram"
attr unit  s
bin	-INF	0
bin	-1.036730648341	0
bin	-0.89838066091287	0
bin	-0.76003067348473	0
bin	-0.6216806860566	0
bin	-0.48333069862847	0
bin	-0.34498071120033	0
bin	-0.2066307237722	0
bin	-0.068280736344067	2920
bin	0.070069251084067	507
bin	0.2084192385122	70
bin	0.34676922594033	87
bin	0.48511921336847	6
bin	0.6234692007966	13
bin	0.76181918822473	63
bin	0.90016917565287	15
bin	1.038519163081	15
bin	1.1768691505091	4
bin	1.3152191379373	33
bin	1.4535691253654	42
bin	1.5919191127935	2
bin	1.7302691002217	4
bin	1.8686190876498	4
bin	2.0069690750779	7
bin	2.1453190625061	17
bin	2.2836690499342	14
bin	2.4220190373623	1
bin	2.5603690247905	3
bin	2.6987190122186	3
bin	2.8370689996467	4
bin	2.9754189870749	4
bin	3.113768974503	244
scalar scenarioPRJP1.node[0].app 	sentPk:count 	5035
attr interpolationmode  none
attr source  sentPk
attr title  "packets sent, count"
scalar scenarioPRJP1.node[0].app 	sentPk:sum(packetBytes) 	2577920
attr interpolationmode  none
attr source  sentPk
attr title  "packets sent, sum(packetBytes)"
scalar scenarioPRJP1.node[0].udp 	droppedPkBadChecksum:count 	0
attr interpolationmode  none
attr title  "packets dropped (checksum error), count"
scalar scenarioPRJP1.node[0].udp 	droppedPkWrongPort:count 	4
attr interpolationmode  none
attr title  "packets dropped (wrong port), count"
scalar scenarioPRJP1.node[0].udp 	passedUpPk:count 	4419
attr interpolationmode  none
attr title  "packets passed up, count"
scalar scenarioPRJP1.node[0].udp 	rcvdPk:count 	4423
attr interpolationmode  none
attr source  rcvdPk
attr title  "packets received, count"
scalar scenarioPRJP1.node[0].udp 	rcvdPk:sum(packetBytes) 	2299960
attr interpolationmode  none
attr source  rcvdPk
attr title  "packets received, sum(packetBytes)"
scalar scenarioPRJP1.node[0].udp 	sentPk:count 	5035
attr interpolationmode  none
attr source  sentPk
attr title  "packets sent, count"
scalar scenarioPRJP1.node[0].udp 	sentPk:sum(packetBytes) 	2618200
attr interpolationmode  none
attr source  sentPk
attr title  "packets sent, sum(packetBytes)"
scalar scenarioPRJP1.node[0].networkLayer.arp 	failedARPResolution:count 	8
attr title  "ARP failed resolutions, count"
scalar scenarioPRJP1.node[0].networkLayer.arp 	completedARPResolution:count 	1371
attr title  "ARP completed resolutions, count"
scalar scenarioPRJP1.node[0].networkLayer.arp 	initiatedARPResolution:count 	78
attr title  "ARP initiated resolutions, count"
scalar scenarioPRJP1.node[0].networkLayer.arp 	sentReply:count 	45
attr title  "ARP replies sent, count"
scalar scenarioPRJP1.node[0].networkLayer.arp 	sentReq:count 	130
attr title  "ARP request sent, count"
scalar scenarioPRJP1.node[0].mobility 	startTime 	0.1
scalar scenarioPRJP1.node[0].mobility 	totalTime 	1899.9
scalar scenarioPRJP1.node[0].mobility 	stopTime 	1900
scalar scenarioPRJP1.node[0].mobility 	minSpeed 	2.4759404198899e-13
scalar scenarioPRJP1.node[0].mobility 	maxSpeed 	19.425395127098
scalar scenarioPRJP1.node[0].mobility 	totalDistance 	20571.043114314
scalar scenarioPRJP1.node[0].mobility 	totalCO2Emission 	5623.9926724871
scalar scenarioPRJP1.node[0].wlan[0].mgmt 	dataQueueLen:max 	21
attr interpolationmode  sample-hold
attr title  "data queue length, max"
scalar scenarioPRJP1.node[0].wlan[0].mgmt 	dataQueueLen:timeavg 	0
attr interpolationmode  sample-hold
attr title  "data queue length, timeavg"
scalar scenarioPRJP1.node[0].wlan[0].mgmt 	dropPkByQueue:count 	0
attr interpolationmode  none
attr source  dropPkByQueue
attr title  "packets dropped by queue, count"
scalar scenarioPRJP1.node[0].wlan[0].mgmt 	dropPkByQueue:sum(packetBytes) 	0
attr interpolationmode  none
attr source  dropPkByQueue
attr title  "packets dropped by queue, sum(packetBytes)"
scalar scenarioPRJP1.node[0].wlan[0].mac 	"number of received packets" 	22936
scalar scenarioPRJP1.node[0].wlan[0].mac 	"number of collisions" 	252883
scalar scenarioPRJP1.node[0].wlan[0].mac 	"number of internal collisions" 	4
scalar scenarioPRJP1.node[0].wlan[0].mac 	"number of retry for AC 0" 	21290
scalar scenarioPRJP1.node[0].wlan[0].mac 	"number of retry for AC 1" 	14
scalar scenarioPRJP1.node[0].wlan[0].mac 	"number of retry for AC 2" 	0
scalar scenarioPRJP1.node[0].wlan[0].mac 	"number of retry for AC 3" 	0
scalar scenarioPRJP1.node[0].wlan[0].mac 	"sent and received bits" 	62333920
scalar scenarioPRJP1.node[0].wlan[0].mac 	"sent packet within AC 0" 	20927
scalar scenarioPRJP1.node[0].wlan[0].mac 	"sent packet within AC 1" 	47
scalar scenarioPRJP1.node[0].wlan[0].mac 	"sent packet within AC 2" 	0
scalar scenarioPRJP1.node[0].wlan[0].mac 	"sent packet within AC 3" 	0
scalar scenarioPRJP1.node[0].wlan[0].mac 	"sent in TXOP " 	0
scalar scenarioPRJP1.node[0].wlan[0].mac 	"sentWithoutRetry AC 0" 	12815
scalar scenarioPRJP1.node[0].wlan[0].mac 	"sentWithoutRetry AC 1" 	39
scalar scenarioPRJP1.node[0].wlan[0].mac 	"sentWithoutRetry AC 2" 	0
scalar scenarioPRJP1.node[0].wlan[0].mac 	"sentWithoutRetry AC 3" 	0
scalar scenarioPRJP1.node[0].wlan[0].mac 	"numGivenUp AC 0" 	566
scalar scenarioPRJP1.node[0].wlan[0].mac 	"numGivenUp AC 1" 	0
scalar scenarioPRJP1.node[0].wlan[0].mac 	"numGivenUp AC 2" 	0
scalar scenarioPRJP1.node[0].wlan[0].mac 	"numGivenUp AC 3" 	0
scalar scenarioPRJP1.node[0].wlan[0].mac 	"numDropped AC 0" 	0
scalar scenarioPRJP1.node[0].wlan[0].mac 	"numDropped AC 1" 	0
scalar scenarioPRJP1.node[0].wlan[0].mac 	"numDropped AC 2" 	0
scalar scenarioPRJP1.node[0].wlan[0].mac 	"numDropped AC 3" 	0
scalar scenarioPRJP1.node[0].wlan[0].mac 	rcvdPkFromLL:count 	1562692
attr interpolationmode  none
attr source  packetReceivedFromLower
attr title  "packets received from lower layer, count"
scalar scenarioPRJP1.node[0].wlan[0].mac 	rcvdPkFromLL:sum(packetBytes) 	279181888
attr interpolationmode  none
attr source  packetReceivedFromLower
attr title  "packets received from lower layer, sum(packetBytes)"
scalar scenarioPRJP1.node[0].wlan[0].mac 	sentDownPk:count 	85585
attr interpolationmode  none
attr source  packetSentToLower
attr title  "packets sent to lower layer, count"
scalar scenarioPRJP1.node[0].wlan[0].mac 	sentDownPk:sum(packetBytes) 	16952200
attr interpolationmode  none
attr source  packetSentToLower
attr title  "packets sent to lower layer, sum(packetBytes)"
scalar scenarioPRJP1.node[0].wlan[0].mac 	rcvdPkFromHL:count 	41349
attr interpolationmode  none
attr source  packetReceivedFromUpper
attr title  "packets received from higher layer, count"
scalar scenarioPRJP1.node[0].wlan[0].mac 	rcvdPkFromHL:sum(packetBytes) 	8067040
attr interpolationmode  none
attr source  packetReceivedFromUpper
attr title  "packets received from higher layer, sum(packetBytes)"
scalar scenarioPRJP1.node[0].wlan[0].mac 	passedUpPk:count 	304649
attr interpolationmode  none
attr source  packetSentToUpper
attr title  "packets passed to higher layer, count"
scalar scenarioPRJP1.node[0].wlan[0].mac 	passedUpPk:sum(packetBytes) 	30652700
attr interpolationmode  none
attr source  packetSentToUpper
attr title  "packets passed to higher layer, sum(packetBytes)"
statistic scenarioPRJP1.node[0].wlan[0].radio 	radioChannel:histogram
field count 1
field mean 3
field stddev -nan
field sum 3
field sqrsum 9
field min 3
field max 3
attr interpolationmode  sample-hold
attr source  radioChannelChanged
attr title  "Radio channel, histogram"
bin	-INF	0
bin	2	0
bin	3	1
bin	4	0
scalar scenarioPRJP1.node[0].wlan[0].radio 	transmissionState:count 	342340
attr interpolationmode  sample-hold
attr source  transmissionStateChanged
attr title  "Radio transmission state, count"
scalar scenarioPRJP1.node[0].wlan[0].radio 	receptionState:count 	3507259
attr interpolationmode  sample-hold
attr source  receptionStateChanged
attr title  "Radio reception state, count"
scalar scenarioPRJP1.node[0].wlan[0].radio 	radioMode:count 	171172
attr interpolationmode  sample-hold
attr source  radioModeChanged
attr title  "Radio mode, count"
statistic scenarioPRJP1.node[0].wlan[0].radio 	symbolErrorRate:histogram
field count 0
field mean -nan
field stddev -nan
field sum 0
field sqrsum 0
field min -nan
field max -nan
attr source  symbolErrorRate
attr title  "Symbol error rate, histogram"
bin	-INF	0
bin	-0.5	0
bin	-0.46666666666667	0
bin	-0.43333333333333	0
bin	-0.4	0
bin	-0.36666666666667	0
bin	-0.33333333333333	0
bin	-0.3	0
bin	-0.26666666666667	0
bin	-0.23333333333333	0
bin	-0.2	0
bin	-0.16666666666667	0
bin	-0.13333333333333	0
bin	-0.1	0
bin	-0.066666666666667	0
bin	-0.033333333333333	0
bin	0	0
bin	0.033333333333333	0
bin	0.066666666666667	0
bin	0.1	0
bin	0.13333333333333	0
bin	0.16666666666667	0
bin	0.2	0
bin	0.23333333333333	0
bin	0.26666666666667	0
bin	0.3	0
bin	0.33333333333333	0
bin	0.36666666666667	0
bin	0.4	0
bin	0.43333333333333	0
bin	0.46666666666667	0
bin	0.5	0
statistic scenarioPRJP1.node[0].wlan[0].radio 	bitErrorRate:histogram
field count 0
field mean -nan
field stddev -nan
field sum 0
field sqrsum 0
field min -nan
field max -nan
attr source  bitErrorRate
attr title  "Bit error rate, histogram"
bin	-INF	0
bin	-0.5	0
bin	-0.46666666666667	0
bin	-0.43333333333333	0
bin	-0.4	0
bin	-0.36666666666667	0
bin	-0.33333333333333	0
bin	-0.3	0
bin	-0.26666666666667	0
bin	-0.23333333333333	0
bin	-0.2	0
bin	-0.16666666666667	0
bin	-0.13333333333333	0
bin	-0.1	0
bin	-0.066666666666667	0
bin	-0.033333333333333	0
bin	0	0
bin	0.033333333333333	0
bin	0.066666666666667	0
bin	0.1	0
bin	0.13333333333333	0
bin	0.16666666666667	0
bin	0.2	0
bin	0.23333333333333	0
bin	0.26666666666667	0
bin	0.3	0
bin	0.33333333333333	0
bin	0.36666666666667	0
bin	0.4	0
bin	0.43333333333333	0
bin	0.46666666666667	0
bin	0.5	0
statistic scenarioPRJP1.node[0].wlan[0].radio 	packetErrorRate:histogram
field count 1562692
field mean 0.15574568949298
field stddev 0.35949316639756
field sum 243382.54300517
field sqrsum 239860.67949292
field min 0
field max 1
attr source  packetErrorRate
attr title  "Packet error rate, histogram"
bin	-INF	0
bin	-0.5	0
bin	-0.43333333333333	0
bin	-0.36666666666667	0
bin	-0.3	0
bin	-0.23333333333333	0
bin	-0.16666666666667	0
bin	-0.1	0
bin	-0.033333333333333	1305083
bin	0.033333333333333	5630
bin	0.1	2762
bin	0.16666666666667	1944
bin	0.23333333333333	1547
bin	0.3	1233
bin	0.36666666666667	1163
bin	0.43333333333333	1036
bin	0.5	967
bin	0.56666666666667	915
bin	0.63333333333333	908
bin	0.7	1008
bin	0.76666666666667	1017
bin	0.83333333333333	1285
bin	0.9	1936
bin	0.96666666666667	234258
bin	1.0333333333333	0
bin	1.1	0
bin	1.1666666666667	0
bin	1.2333333333333	0
bin	1.3	0
bin	1.3666666666667	0
bin	1.4333333333333	0
bin	1.5	0
statistic scenarioPRJP1.node[0].wlan[0].radio 	minSNIR:histogram
field count 1562692
field mean 79862.733362888
field stddev 1162167.1178464
field sum 124800854524.32
field sqrsum 2.1205880484764e+18
field min 3.5990125527919e-06
field max 281961434.49602
attr source  minSNIR
attr title  "Min SNIR, histogram"
bin	-INF	0
bin	-23298.235691195	0
bin	-20191.802430848	0
bin	-17085.369170502	0
bin	-13978.935910156	0
bin	-10872.50264981	0
bin	-7766.0693894632	0
bin	-4659.6361291169	0
bin	-1553.2028687706	975221
bin	1553.2303915757	368346
bin	4659.663651922	88561
bin	7766.0969122683	34002
bin	10872.530172615	16574
bin	13978.963432961	9523
bin	17085.396693307	5971
bin	20191.829953654	4134
bin	23298.263214	3079
bin	26404.696474346	2420
bin	29511.129734692	1885
bin	32617.562995039	1555
bin	35723.996255385	1359
bin	38830.429515731	1212
bin	41936.862776078	957
bin	45043.296036424	892
bin	48149.72929677	828
bin	51256.162557117	732
bin	54362.595817463	656
bin	57469.029077809	672
bin	60575.462338156	533
bin	63681.895598502	467
bin	66788.328858848	497
bin	69894.762119195	42616
scalar scenarioPRJP1.node[0].lo0.lo 	droppedPkBitError:count 	0
attr interpolationmode  none
attr source  dropPkBitError
attr title  "packets dropped/bit error, count"
scalar scenarioPRJP1.node[0].lo0.lo 	droppedPkBitError:sum(packetBytes) 	0
attr interpolationmode  none
attr source  dropPkBitError
attr title  "packets dropped/bit error, sum(packetBytes)"
scalar scenarioPRJP1.node[0].lo0.lo 	rcvdPkFromHL:count 	5
attr interpolationmode  none
attr source  packetReceivedFromUpper
attr title  "packets received from higher layer, count"
scalar scenarioPRJP1.node[0].lo0.lo 	rcvdPkFromHL:sum(packetBytes) 	280
attr interpolationmode  none
attr source  packetReceivedFromUpper
attr title  "packets received from higher layer, sum(packetBytes)"
scalar scenarioPRJP1.node[0].lo0.lo 	passedUpPk:count 	5
attr interpolationmode  none
attr source  packetSentToUpper
attr title  "packets passed to higher layer, count"
scalar scenarioPRJP1.node[0].lo0.lo 	passedUpPk:sum(packetBytes) 	280
attr interpolationmode  none
attr source  packetSentToUpper
attr title  "packets passed to higher layer, sum(packetBytes)"
scalar scenarioPRJP1.node[1].app 	"Total sent" 	5035
scalar scenarioPRJP1.node[1].app 	"Total received" 	4063
scalar scenarioPRJP1.node[1].app 	"Total deleted" 	15
scalar scenarioPRJP1.node[1].app 	dropPk:count 	15
attr interpolationmode  none
attr source  dropPk
attr title  "packets dropped, count"
scalar scenarioPRJP1.node[1].app 	dropPk:sum(packetBytes) 	7680
attr interpolationmode  none
attr source  dropPk
attr title  "packets dropped, sum(packetBytes)"
scalar scenarioPRJP1.node[1].app 	outOfOrderPk:count 	348
attr interpolationmode  none
attr source  outOfOrderPk
attr title  "packets received out of order, count"
scalar scenarioPRJP1.node[1].app 	outOfOrderPk:sum(packetBytes) 	178176
attr interpolationmode  none
attr source  outOfOrderPk
attr title  "packets received out of order, sum(packetBytes)"
scalar scenarioPRJP1.node[1].app 	rcvdPk:count 	4063
attr interpolationmode  none
attr source  rcvdPk
attr title  "packets received, count"
scalar scenarioPRJP1.node[1].app 	rcvdPk:sum(packetBytes) 	2080256
attr interpolationmode  none
attr source  rcvdPk
attr title  "packets received, sum(packetBytes)"
statistic scenarioPRJP1.node[1].app 	endToEndDelay:histogram
field count 4063
field mean 0.5541127386433
field stddev 2.0458630288369
field sum 2251.3600571077
field sqrsum 18249.233860995
field min 0.000879089429
field max 19.103550789078
attr interpolationmode  none
attr source  messageAge(rcvdPk)
attr title  "delay, histogram"
attr unit  s
bin	-INF	0
bin	-1.0344200460325	0
bin	-0.89636396956017	0
bin	-0.75830789308783	0
bin	-0.6202518166155	0
bin	-0.48219574014317	0
bin	-0.34413966367083	0
bin	-0.2060835871985	0
bin	-0.068027510726167	3011
bin	0.070028565746167	461
bin	0.2080846422185	58
bin	0.34614071869083	83
bin	0.48419679516317	13
bin	0.6222528716355	7
bin	0.76030894810783	70
bin	0.89836502458017	24
bin	1.0364211010525	6
bin	1.1744771775248	5
bin	1.3125332539972	13
bin	1.4505893304695	30
bin	1.5886454069418	4
bin	1.7267014834142	1
bin	1.8647575598865	8
bin	2.0028136363588	8
bin	2.1408697128312	16
bin	2.2789257893035	11
bin	2.4169818657758	0
bin	2.5550379422482	1
bin	2.6930940187205	1
bin	2.8311500951928	4
bin	2.9692061716652	2
bin	3.1072622481375	226
scalar scenarioPRJP1.node[1].app 	sentPk:count 	5035
attr interpolationmode  none
attr source  sentPk
attr title  "packets sent, count"
scalar scenarioPRJP1.node[1].app 	sentPk:sum(packetBytes) 	2577920
attr interpolationmode  none
attr source  sentPk
attr title  "packets sent, sum(packetBytes)"
scalar scenarioPRJP1.node[1].udp 	droppedPkBadChecksum:count 	0
attr interpolationmode  none
attr title  "packets dropped (checksum error), count"
scalar scenarioPRJP1.node[1].udp 	droppedPkWrongPort:count 	4
attr interpolationmode  none
attr title  "packets dropped (wrong port), count"
scalar scenarioPRJP1.node[1].udp 	passedUpPk:count 	4426
attr interpolationmode  none
attr title  "packets passed up, count"
scalar scenarioPRJP1.node[1].udp 	rcvdPk:count 	4430
attr interpolationmode  none
attr source  rcvdPk
attr title  "packets received, count"
scalar scenarioPRJP1.node[1].udp 	rcvdPk:sum(packetBytes) 	2303600
attr interpolationmode  none
attr source  rcvdPk
attr title  "packets received, sum(packetBytes)"
scalar scenarioPRJP1.node[1].udp 	sentPk:count 	5035
attr interpolationmode  none
attr source  sentPk
attr title  "packets sent, count"
scalar scenarioPRJP1.node[1].udp 	sentPk:sum(packetBytes) 	2618200
attr interpolationmode  none
attr source  sentPk
attr title  "packets sent, sum(packetBytes)"
scalar scenarioPRJP1.node[1].networkLayer.arp 	failedARPResolution:count 	3
attr title  "ARP failed resolutions, count"
scalar scenarioPRJP1.node[1].networkLayer.arp 	completedARPResolution:count 	1452
attr title  "ARP completed resolutions, count"
scalar scenarioPRJP1.node[1].networkLayer.arp 	initiatedARPResolution:count 	51
attr title  "ARP initiated resolutions, count"
scalar scenarioPRJP1.node[1].networkLayer.arp 	sentReply:count 	119
attr title  "ARP replies sent, count"
scalar scenarioPRJP1.node[1].networkLayer.arp 	sentReq:count 	80
attr title  "ARP request sent, count"
scalar scenarioPRJP1.node[1].mobility 	startTime 	0.1
scalar scenarioPRJP1.node[1].mobility 	totalTime 	1899.9
scalar scenarioPRJP1.node[1].mobility 	stopTime 	1900
scalar scenarioPRJP1.node[1].mobility 	minSpeed 	2.4754378205345e-13
scalar scenarioPRJP1.node[1].mobility 	maxSpeed 	17.107806742865
scalar scenarioPRJP1.node[1].mobility 	totalDistance 	20410.363026788
scalar scenarioPRJP1.node[1].mobility 	totalCO2Emission 	5052.2603166986
scalar scenarioPRJP1.node[1].wlan[0].mgmt 	dataQueueLen:max 	18
attr interpolationmode  sample-hold
attr title  "data queue length, max"
scalar scenarioPRJP1.node[1].wlan[0].mgmt 	dataQueueLen:timeavg 	0
attr interpolationmode  sample-hold
attr title  "data queue length, timeavg"
scalar scenarioPRJP1.node[1].wlan[0].mgmt 	dropPkByQueue:count 	0
attr interpolationmode  none
attr source  dropPkByQueue
attr title  "packets dropped by queue, count"
scalar scenarioPRJP1.node[1].wlan[0].mgmt 	dropPkByQueue:sum(packetBytes) 	0
attr interpolationmode  none
attr source  dropPkByQueue
attr title  "packets dropped by queue, sum(packetBytes)"
scalar scenarioPRJP1.node[1].wlan[0].mac 	"number of received packets" 	22750
scalar scenarioPRJP1.node[1].wlan[0].mac 	"number of collisions" 	242925
scalar scenarioPRJP1.node[1].wlan[0].mac 	"number of internal collisions" 	4
scalar scenarioPRJP1.node[1].wlan[0].mac 	"number of retry for AC 0" 	22153
scalar scenarioPRJP1.node[1].wlan[0].mac 	"number of retry for AC 1" 	29
scalar scenarioPRJP1.node[1].wlan[0].mac 	"number of retry for AC 2" 	0
scalar scenarioPRJP1.node[1].wlan[0].mac 	"number of retry for AC 3" 	0
scalar scenarioPRJP1.node[1].wlan[0].mac 	"sent and received bits" 	66085824
scalar scenarioPRJP1.node[1].wlan[0].mac 	"sent packet within AC 0" 	21579
scalar scenarioPRJP1.node[1].wlan[0].mac 	"sent packet within AC 1" 	61
scalar scenarioPRJP1.node[1].wlan[0].mac 	"sent packet within AC 2" 	0
scalar scenarioPRJP1.node[1].wlan[0].mac 	"sent packet within AC 3" 	0
scalar scenarioPRJP1.node[1].wlan[0].mac 	"sent in TXOP " 	0
scalar scenarioPRJP1.node[1].wlan[0].mac 	"sentWithoutRetry AC 0" 	13394
scalar scenarioPRJP1.node[1].wlan[0].mac 	"sentWithoutRetry AC 1" 	50
scalar scenarioPRJP1.node[1].wlan[0].mac 	"sentWithoutRetry AC 2" 	0
scalar scenarioPRJP1.node[1].wlan[0].mac 	"sentWithoutRetry AC 3" 	0
scalar scenarioPRJP1.node[1].wlan[0].mac 	"numGivenUp AC 0" 	576
scalar scenarioPRJP1.node[1].wlan[0].mac 	"numGivenUp AC 1" 	1
scalar scenarioPRJP1.node[1].wlan[0].mac 	"numGivenUp AC 2" 	0
scalar scenarioPRJP1.node[1].wlan[0].mac 	"numGivenUp AC 3" 	0
scalar scenarioPRJP1.node[1].wlan[0].mac 	"numDropped AC 0" 	0
scalar scenarioPRJP1.node[1].wlan[0].mac 	"numDropped AC 1" 	0
scalar scenarioPRJP1.node[1].wlan[0].mac 	"numDropped AC 2" 	0
scalar scenarioPRJP1.node[1].wlan[0].mac 	"numDropped AC 3" 	0
scalar scenarioPRJP1.node[1].wlan[0].mac 	rcvdPkFromLL:count 	1558697
attr interpolationmode  none
attr source  packetReceivedFromLower
attr title  "packets received from lower layer, count"
scalar scenarioPRJP1.node[1].wlan[0].mac 	rcvdPkFromLL:sum(packetBytes) 	278362418
attr interpolationmode  none
attr source  packetReceivedFromLower
attr title  "packets received from lower layer, sum(packetBytes)"
scalar scenarioPRJP1.node[1].wlan[0].mac 	sentDownPk:count 	88335
attr interpolationmode  none
attr source  packetSentToLower
attr title  "packets sent to lower layer, count"
scalar scenarioPRJP1.node[1].wlan[0].mac 	sentDownPk:sum(packetBytes) 	17799684
attr interpolationmode  none
attr source  packetSentToLower
attr title  "packets sent to lower layer, sum(packetBytes)"
scalar scenarioPRJP1.node[1].wlan[0].mac 	rcvdPkFromHL:count 	43407
attr interpolationmode  none
attr source  packetReceivedFromUpper
attr title  "packets received from higher layer, count"
scalar scenarioPRJP1.node[1].wlan[0].mac 	rcvdPkFromHL:sum(packetBytes) 	8524208
attr interpolationmode  none
attr source  packetReceivedFromUpper
attr title  "packets received from higher layer, sum(packetBytes)"
scalar scenarioPRJP1.node[1].wlan[0].mac 	passedUpPk:count 	306299
attr interpolationmode  none
attr source  packetSentToUpper
attr title  "packets passed to higher layer, count"
scalar scenarioPRJP1.node[1].wlan[0].mac 	passedUpPk:sum(packetBytes) 	31063444
attr interpolationmode  none
attr source  packetSentToUpper
attr title  "packets passed to higher layer, sum(packetBytes)"
statistic scenarioPRJP1.node[1].wlan[0].radio 	radioChannel:histogram
field count 1
field mean 3
field stddev -nan
field sum 3
field sqrsum 9
field min 3
field max 3
attr interpolationmode  sample-hold
attr source  radioChannelChanged
attr title  "Radio channel, histogram"
bin	-INF	0
bin	2	0
bin	3	1
bin	4	0
scalar scenarioPRJP1.node[1].wlan[0].radio 	transmissionState:count 	353340
attr interpolationmode  sample-hold
attr source  transmissionStateChanged
attr title  "Radio transmission state, count"
scalar scenarioPRJP1.node[1].wlan[0].radio 	receptionState:count 	3502254
attr interpolationmode  sample-hold
attr source  receptionStateChanged
attr title  "Radio reception state, count"
scalar scenarioPRJP1.node[1].wlan[0].radio 	radioMode:count 	176672
attr interpolationmode  sample-hold
attr source  radioModeChanged
attr title  "Radio mode, count"
statistic scenarioPRJP1.node[1].wlan[0].radio 	symbolErrorRate:histogram
field count 0
field mean -nan
field stddev -nan
field sum 0
field sqrsum 0
field min -nan
field max -nan
attr source  symbolErrorRate
attr title  "Symbol error rate, histogram"
bin	-INF	0
bin	-0.5	0
bin	-0.46666666666667	0
bin	-0.43333333333333	0
bin	-0.4	0
bin	-0.36666666666667	0
bin	-0.33333333333333	0
bin	-0.3	0
bin	-0.26666666666667	0
bin	-0.23333333333333	0
bin	-0.2	0
bin	-0.16666666666667	0
bin	-0.13333333333333	0
bin	-0.1	0
bin	-0.066666666666667	0
bin	-0.033333333333333	0
bin	0	0
bin	0.033333333333333	0
bin	0.066666666666667	0
bin	0.1	0
bin	0.13333333333333	0
bin	0.16666666666667	0
bin	0.2	0
bin	0.23333333333333	0
bin	0.26666666666667	0
bin	0.3	0
bin	0.33333333333333	0
bin	0.36666666666667	0
bin	0.4	0
bin	0.43333333333333	0
bin	0.46666666666667	0
bin	0.5	0
statistic scenarioPRJP1.node[1].wlan[0].radio 	bitErrorRate:histogram
field count 0
field mean -nan
field stddev -nan
field sum 0
field sqrsum 0
field min -nan
field max -nan
attr source  bitErrorRate
attr title  "Bit error rate, histogram"
bin	-INF	0
bin	-0.5	0
bin	-0.46666666666667	0
bin	-0.43333333333333	0
bin	-0.4	0
bin	-0.36666666666667	0
bin	-0.33333333333333	0
bin	-0.3	0
bin	-0.26666666666667	0
bin	-0.23333333333333	0
bin	-0.2	0
bin	-0.16666666666667	0
bin	-0.13333333333333	0
bin	-0.1	0
bin	-0.066666666666667	0
bin	-0.033333333333333	0
bin	0	0
bin	0.033333333333333	0
bin	0.066666666666667	0
bin	0.1	0
bin	0.13333333333333	0
bin	0.16666666666667	0
bin	0.2	0
bin	0.23333333333333	0
bin	0.26666666666667	0
bin	0.3	0
bin	0.33333333333333	0
bin	0.36666666666667	0
bin	0.4	0
bin	0.43333333333333	0
bin	0.46666666666667	0
bin	0.5	0
statistic scenarioPRJP1.node[1].wlan[0].radio 	packetErrorRate:histogram
field count 1558697
field mean 0.15019206624804
field stddev 0.35418214338164
field sum 234103.92308462
field sqrsum 230691.15713404
field min 0
field max 1
attr source  packetErrorRate
attr title  "Packet error rate, histogram"
bin	-INF	0
bin	-0.5	0
bin	-0.43333333333333	0
bin	-0.36666666666667	0
bin	-0.3	0
bin	-0.23333333333333	0
bin	-0.16666666666667	0
bin	-0.1	0
bin	-0.033333333333333	1310871
bin	0.033333333333333	5364
bin	0.1	2714
bin	0.16666666666667	1854
bin	0.23333333333333	1516
bin	0.3	1271
bin	0.36666666666667	1078
bin	0.43333333333333	978
bin	0.5	893
bin	0.56666666666667	913
bin	0.63333333333333	902
bin	0.7	942
bin	0.76666666666667	1008
bin	0.83333333333333	1265
bin	0.9	1914
bin	0.96666666666667	225214
bin	1.0333333333333	0
bin	1.1	0
bin	1.1666666666667	0
bin	1.2333333333333	0
bin	1.3	0
bin	1.3666666666667	0
bin	1.4333333333333	0
bin	1.5	0
statistic scenarioPRJP1.node[1].wlan[0].radio 	minSNIR:histogram
field count 1558697
field mean 57183.949144875
field stddev 891487.21064682
field sum 89132449980.269
field sqrsum 1.2438697291334e+18
field min 5.5643271785502e-06
field max 151754506.01093
attr source  minSNIR
attr title  "Min SNIR, histogram"
bin	-INF	0
bin	-2889.9368326297	0
bin	-2504.6117111577	0
bin	-2119.2865896856	0
bin	-1733.9614682135	0
bin	-1348.6363467414	0
bin	-963.31122526934	0
bin	-577.98610379726	0
bin	-192.66098232518	362592
bin	192.66413914689	182220
bin	577.98926061897	215380
bin	963.31438209105	151927
bin	1348.6395035631	108688
bin	1733.9646250352	80452
bin	2119.2897465073	61286
bin	2504.6148679794	48106
bin	2889.9399894514	38633
bin	3275.2651109235	31507
bin	3660.5902323956	26360
bin	4045.9153538677	21817
bin	4431.2404753398	18524
bin	4816.5655968118	16011
bin	5201.8907182839	13819
bin	5587.215839756	11971
bin	5972.5409612281	10470
bin	6357.8660827002	9088
bin	6743.1912041722	8161
bin	7128.5163256443	7306
bin	7513.8414471164	6461
bin	7899.1665685885	5696
bin	8284.4916900606	5178
bin	8669.8168115326	117044
scalar scenarioPRJP1.node[1].lo0.lo 	droppedPkBitError:count 	0
attr interpolationmode  none
attr source  dropPkBitError
attr title  "packets dropped/bit error, count"
scalar scenarioPRJP1.node[1].lo0.lo 	droppedPkBitError:sum(packetBytes) 	0
attr interpolationmode  none
attr source  dropPkBitError
attr title  "packets dropped/bit error, sum(packetBytes)"
scalar scenarioPRJP1.node[1].lo0.lo 	rcvdPkFromHL:count 	5
attr interpolationmode  none
attr source  packetReceivedFromUpper
attr title  "packets received from higher layer, count"
scalar scenarioPRJP1.node[1].lo0.lo 	rcvdPkFromHL:sum(packetBytes) 	280
attr interpolationmode  none
attr source  packetReceivedFromUpper
attr title  "packets received from higher layer, sum(packetBytes)"
scalar scenarioPRJP1.node[1].lo0.lo 	passedUpPk:count 	5
attr interpolationmode  none
attr source  packetSentToUpper
attr title  "packets passed to higher layer, count"
scalar scenarioPRJP1.node[1].lo0.lo 	passedUpPk:sum(packetBytes) 	280
attr interpolationmode  none
attr source  packetSentToUpper
attr title  "packets passed to higher layer, sum(packetBytes)"
scalar scenarioPRJP1.node[14].app 	"Total sent" 	5026
scalar scenarioPRJP1.node[14].app 	"Total received" 	4149
scalar scenarioPRJP1.node[14].app 	"Total deleted" 	18
scalar scenarioPRJP1.node[14].app 	dropPk:count 	18
attr interpolationmode  none
attr source  dropPk
attr title  "packets dropped, count"
scalar scenarioPRJP1.node[14].app 	dropPk:sum(packetBytes) 	9216
attr interpolationmode  none
attr source  dropPk
attr title  "packets dropped, sum(packetBytes)"
scalar scenarioPRJP1.node[14].app 	outOfOrderPk:count 	369
attr interpolationmode  none
attr source  outOfOrderPk
attr title  "packets received out of order, count"
scalar scenarioPRJP1.node[14].app 	outOfOrderPk:sum(packetBytes) 	188928
attr interpolationmode  none
attr source  outOfOrderPk
attr title  "packets received out of order, sum(packetBytes)"
scalar scenarioPRJP1.node[14].app 	rcvdPk:count 	4149
attr interpolationmode  none
attr source  rcvdPk
attr title  "packets received, count"
scalar scenarioPRJP1.node[14].app 	rcvdPk:sum(packetBytes) 	2124288
attr interpolationmode  none
attr source  rcvdPk
attr title  "packets received, sum(packetBytes)"
statistic scenarioPRJP1.node[14].app 	endToEndDelay:histogram
field count 4149
field mean 0.52366136778522
field stddev 1.9901565745025
field sum 2172.6710149409
field sqrsum 17566.823671847
field min 0.000891851676
field max 19.358665813965
attr interpolationmode  none
attr source  messageAge(rcvdPk)
attr title  "delay, histogram"
attr unit  s
bin	-INF	0
bin	-0.509577825843	0
bin	-0.44151017099513	0
bin	-0.37344251614727	0
bin	-0.3053748612994	0
bin	-0.23730720645153	0
bin	-0.16923955160367	0
bin	-0.1011718967558	0
bin	-0.033104241907933	1732
bin	0.034963412939933	1640
bin	0.1030310677878	141
bin	0.17109872263567	7
bin	0.23916637748353	0
bin	0.3072340323314	131
bin	0.37530168717927	32
bin	0.44336934202713	6
bin	0.511436996875	4
bin	0.57950465172287	3
bin	0.64757230657073	3
bin	0.7156399614186	5
bin	0.78370761626647	71
bin	0.85177527111433	25
bin	0.9198429259622	5
bin	0.98791058081007	7
bin	1.0559782356579	7
bin	1.1240458905058	3
bin	1.1921135453537	5
bin	1.2601812002015	0
bin	1.3282488550494	1
bin	1.3963165098973	28
bin	1.4643841647451	20
bin	1.532451819593	273
scalar scenarioPRJP1.node[14].app 	sentPk:count 	5026
attr interpolationmode  none
attr source  sentPk
attr title  "packets sent, count"
scalar scenarioPRJP1.node[14].app 	sentPk:sum(packetBytes) 	2573312
attr interpolationmode  none
attr source  sentPk
attr title  "packets sent, sum(packetBytes)"
scalar scenarioPRJP1.node[14].udp 	droppedPkBadChecksum:count 	0
attr interpolationmode  none
attr title  "packets dropped (checksum error), count"
scalar scenarioPRJP1.node[14].udp 	droppedPkWrongPort:count 	1
attr interpolationmode  none
attr title  "packets dropped (wrong port), count"
scalar scenarioPRJP1.node[14].udp 	passedUpPk:count 	4536
attr interpolationmode  none
attr title  "packets passed up, count"
scalar scenarioPRJP1.node[14].udp 	rcvdPk:count 	4537
attr interpolationmode  none
attr source  rcvdPk
attr title  "packets received, count"
scalar scenarioPRJP1.node[14].udp 	rcvdPk:sum(packetBytes) 	2359240
attr interpolationmode  none
attr source  rcvdPk
attr title  "packets received, sum(packetBytes)"
scalar scenarioPRJP1.node[14].udp 	sentPk:count 	5026
attr interpolationmode  none
attr source  sentPk
attr title  "packets sent, count"
scalar scenarioPRJP1.node[14].udp 	sentPk:sum(packetBytes) 	2613520
attr interpolationmode  none
attr source  sentPk
attr title  "packets sent, sum(packetBytes)"
scalar scenarioPRJP1.node[14].networkLayer.arp 	failedARPResolution:count 	4
attr title  "ARP failed resolutions, count"
scalar scenarioPRJP1.node[14].networkLayer.arp 	completedARPResolution:count 	1374
attr title  "ARP completed resolutions, count"
scalar scenarioPRJP1.node[14].networkLayer.arp 	initiatedARPResolution:count 	68
attr title  "ARP initiated resolutions, count"
scalar scenarioPRJP1.node[14].networkLayer.arp 	sentReply:count 	35
attr title  "ARP replies sent, count"
scalar scenarioPRJP1.node[14].networkLayer.arp 	sentReq:count 	119
attr title  "ARP request sent, count"
scalar scenarioPRJP1.node[14].mobility 	startTime 	2.5
scalar scenarioPRJP1.node[14].mobility 	totalTime 	1897.5
scalar scenarioPRJP1.node[14].mobility 	stopTime 	1900
scalar scenarioPRJP1.node[14].mobility 	minSpeed 	2.4755334547467e-13
scalar scenarioPRJP1.node[14].mobility 	maxSpeed 	15.165605741531
scalar scenarioPRJP1.node[14].mobility 	totalDistance 	18265.416449646
scalar scenarioPRJP1.node[14].mobility 	totalCO2Emission 	4458.5640888618
scalar scenarioPRJP1.node[14].wlan[0].mgmt 	dataQueueLen:max 	14
attr interpolationmode  sample-hold
attr title  "data queue length, max"
scalar scenarioPRJP1.node[14].wlan[0].mgmt 	dataQueueLen:timeavg 	0
attr interpolationmode  sample-hold
attr title  "data queue length, timeavg"
scalar scenarioPRJP1.node[14].wlan[0].mgmt 	dropPkByQueue:count 	0
attr interpolationmode  none
attr source  dropPkByQueue
attr title  "packets dropped by queue, count"
scalar scenarioPRJP1.node[14].wlan[0].mgmt 	dropPkByQueue:sum(packetBytes) 	0
attr interpolationmode  none
attr source  dropPkByQueue
attr title  "packets dropped by queue, sum(packetBytes)"
scalar scenarioPRJP1.node[14].wlan[0].mac 	"number of received packets" 	22353
scalar scenarioPRJP1.node[14].wlan[0].mac 	"number of collisions" 	245746
scalar scenarioPRJP1.node[14].wlan[0].mac 	"number of internal collisions" 	0
scalar scenarioPRJP1.node[14].wlan[0].mac 	"number of retry for AC 0" 	24617
scalar scenarioPRJP1.node[14].wlan[0].mac 	"number of retry for AC 1" 	17
scalar scenarioPRJP1.node[14].wlan[0].mac 	"number of retry for AC 2" 	0
scalar scenarioPRJP1.node[14].wlan[0].mac 	"number of retry for AC 3" 	0
scalar scenarioPRJP1.node[14].wlan[0].mac 	"sent and received bits" 	61003968
scalar scenarioPRJP1.node[14].wlan[0].mac 	"sent packet within AC 0" 	19884
scalar scenarioPRJP1.node[14].wlan[0].mac 	"sent packet within AC 1" 	30
scalar scenarioPRJP1.node[14].wlan[0].mac 	"sent packet within AC 2" 	0
scalar scenarioPRJP1.node[14].wlan[0].mac 	"sent packet within AC 3" 	0
scalar scenarioPRJP1.node[14].wlan[0].mac 	"sent in TXOP " 	0
scalar scenarioPRJP1.node[14].wlan[0].mac 	"sentWithoutRetry AC 0" 	12145
scalar scenarioPRJP1.node[14].wlan[0].mac 	"sentWithoutRetry AC 1" 	27
scalar scenarioPRJP1.node[14].wlan[0].mac 	"sentWithoutRetry AC 2" 	0
scalar scenarioPRJP1.node[14].wlan[0].mac 	"sentWithoutRetry AC 3" 	0
scalar scenarioPRJP1.node[14].wlan[0].mac 	"numGivenUp AC 0" 	941
scalar scenarioPRJP1.node[14].wlan[0].mac 	"numGivenUp AC 1" 	2
scalar scenarioPRJP1.node[14].wlan[0].mac 	"numGivenUp AC 2" 	0
scalar scenarioPRJP1.node[14].wlan[0].mac 	"numGivenUp AC 3" 	0
scalar scenarioPRJP1.node[14].wlan[0].mac 	"numDropped AC 0" 	0
scalar scenarioPRJP1.node[14].wlan[0].mac 	"numDropped AC 1" 	0
scalar scenarioPRJP1.node[14].wlan[0].mac 	"numDropped AC 2" 	0
scalar scenarioPRJP1.node[14].wlan[0].mac 	"numDropped AC 3" 	0
scalar scenarioPRJP1.node[14].wlan[0].mac 	rcvdPkFromLL:count 	1526528
attr interpolationmode  none
attr source  packetReceivedFromLower
attr title  "packets received from lower layer, count"
scalar scenarioPRJP1.node[14].wlan[0].mac 	rcvdPkFromLL:sum(packetBytes) 	273164946
attr interpolationmode  none
attr source  packetReceivedFromLower
attr title  "packets received from lower layer, sum(packetBytes)"
scalar scenarioPRJP1.node[14].wlan[0].mac 	sentDownPk:count 	89079
attr interpolationmode  none
attr source  packetSentToLower
attr title  "packets sent to lower layer, count"
scalar scenarioPRJP1.node[14].wlan[0].mac 	sentDownPk:sum(packetBytes) 	18621366
attr interpolationmode  none
attr source  packetSentToLower
attr title  "packets sent to lower layer, sum(packetBytes)"
scalar scenarioPRJP1.node[14].wlan[0].mac 	rcvdPkFromHL:count 	42092
attr interpolationmode  none
attr source  packetReceivedFromUpper
attr title  "packets received from higher layer, count"
scalar scenarioPRJP1.node[14].wlan[0].mac 	rcvdPkFromHL:sum(packetBytes) 	8082028
attr interpolationmode  none
attr source  packetReceivedFromUpper
attr title  "packets received from higher layer, sum(packetBytes)"
scalar scenarioPRJP1.node[14].wlan[0].mac 	passedUpPk:count 	298933
attr interpolationmode  none
attr source  packetSentToUpper
attr title  "packets passed to higher layer, count"
scalar scenarioPRJP1.node[14].wlan[0].mac 	passedUpPk:sum(packetBytes) 	30168752
attr interpolationmode  none
attr source  packetSentToUpper
attr title  "packets passed to higher layer, sum(packetBytes)"
statistic scenarioPRJP1.node[14].wlan[0].radio 	radioChannel:histogram
field count 1
field mean 3
field stddev -nan
field sum 3
field sqrsum 9
field min 3
field max 3
attr interpolationmode  sample-hold
attr source  radioChannelChanged
attr title  "Radio channel, histogram"
bin	-INF	0
bin	2	0
bin	3	1
bin	4	0
scalar scenarioPRJP1.node[14].wlan[0].radio 	transmissionState:count 	356316
attr interpolationmode  sample-hold
attr source  transmissionStateChanged
attr title  "Radio transmission state, count"
scalar scenarioPRJP1.node[14].wlan[0].radio 	receptionState:count 	3436260
attr interpolationmode  sample-hold
attr source  receptionStateChanged
attr title  "Radio reception state, count"
scalar scenarioPRJP1.node[14].wlan[0].radio 	radioMode:count 	178160
attr interpolationmode  sample-hold
attr source  radioModeChanged
attr title  "Radio mode, count"
statistic scenarioPRJP1.node[14].wlan[0].radio 	symbolErrorRate:histogram
field count 0
field mean -nan
field stddev -nan
field sum 0
field sqrsum 0
field min -nan
field max -nan
attr source  symbolErrorRate
attr title  "Symbol error rate, histogram"
bin	-INF	0
bin	-0.5	0
bin	-0.46666666666667	0
bin	-0.43333333333333	0
bin	-0.4	0
bin	-0.36666666666667	0
bin	-0.33333333333333	0
bin	-0.3	0
bin	-0.26666666666667	0
bin	-0.23333333333333	0
bin	-0.2	0
bin	-0.16666666666667	0
bin	-0.13333333333333	0
bin	-0.1	0
bin	-0.066666666666667	0
bin	-0.033333333333333	0
bin	0	0
bin	0.033333333333333	0
bin	0.066666666666667	0
bin	0.1	0
bin	0.13333333333333	0
bin	0.16666666666667	0
bin	0.2	0
bin	0.23333333333333	0
bin	0.26666666666667	0
bin	0.3	0
bin	0.33333333333333	0
bin	0.36666666666667	0
bin	0.4	0
bin	0.43333333333333	0
bin	0.46666666666667	0
bin	0.5	0
statistic scenarioPRJP1.node[14].wlan[0].radio 	bitErrorRate:histogram
field count 0
field mean -nan
field stddev -nan
field sum 0
field sqrsum 0
field min -nan
field max -nan
attr source  bitErrorRate
attr title  "Bit error rate, histogram"
bin	-INF	0
bin	-0.5	0
bin	-0.46666666666667	0
bin	-0.43333333333333	0
bin	-0.4	0
bin	-0.36666666666667	0
bin	-0.33333333333333	0
bin	-0.3	0
bin	-0.26666666666667	0
bin	-0.23333333333333	0
bin	-0.2	0
bin	-0.16666666666667	0
bin	-0.13333333333333	0
bin	-0.1	0
bin	-0.066666666666667	0
bin	-0.033333333333333	0
bin	0	0
bin	0.033333333333333	0
bin	0.066666666666667	0
bin	0.1	0
bin	0.13333333333333	0
bin	0.16666666666667	0
bin	0.2	0
bin	0.23333333333333	0
bin	0.26666666666667	0
bin	0.3	0
bin	0.33333333333333	0
bin	0.36666666666667	0
bin	0.4	0
bin	0.43333333333333	0
bin	0.46666666666667	0
bin	0.5	0
statistic scenarioPRJP1.node[14].wlan[0].radio 	packetErrorRate:histogram
field count 1526528
field mean 0.15472631226048
field stddev 0.35841180923623
field sum 236194.04800236
field sqrsum 232641.60408143
field min 0
field max 1
attr source  packetErrorRate
attr title  "Packet error rate, histogram"
bin	-INF	0
bin	-0.5	0
bin	-0.43333333333333	0
bin	-0.36666666666667	0
bin	-0.3	0
bin	-0.23333333333333	0
bin	-0.16666666666667	0
bin	-0.1	0
bin	-0.033333333333333	1276144
bin	0.033333333333333	5559
bin	0.1	2762
bin	0.16666666666667	1883
bin	0.23333333333333	1570
bin	0.3	1330
bin	0.36666666666667	1074
bin	0.43333333333333	1041
bin	0.5	1019
bin	0.56666666666667	946
bin	0.63333333333333	931
bin	0.7	957
bin	0.76666666666667	1072
bin	0.83333333333333	1328
bin	0.9	2018
bin	0.96666666666667	226894
bin	1.0333333333333	0
bin	1.1	0
bin	1.1666666666667	0
bin	1.2333333333333	0
bin	1.3	0
bin	1.3666666666667	0
bin	1.4333333333333	0
bin	1.5	0
statistic scenarioPRJP1.node[14].wlan[0].radio 	minSNIR:histogram
field count 1526528
field mean 37929.072677846
field stddev 559225.40889111
field sum 57899791456.767
field sqrsum 4.7959154215056e+17
field min 8.1065257408774e-06
field max 92479905.411652
attr source  minSNIR
attr title  "Min SNIR, histogram"
bin	-INF	0
bin	-28339.085870087	0
bin	-24560.535994079	0
bin	-20781.98611807	0
bin	-17003.436242062	0
bin	-13224.886366054	0
bin	-9446.3364900463	0
bin	-5667.7866140382	0
bin	-1889.2367380301	1082823
bin	1889.313137978	296333
bin	5667.863013986	60606
bin	9446.4128899941	21514
bin	13224.962766002	10283
bin	17003.51264201	5885
bin	20782.062518018	3914
bin	24560.612394026	2867
bin	28339.162270034	2194
bin	32117.712146043	1725
bin	35896.262022051	1436
bin	39674.811898059	1249
bin	43453.361774067	1103
bin	47231.911650075	950
bin	51010.461526083	864
bin	54789.011402091	720
bin	58567.561278099	662
bin	62346.111154107	559
bin	66124.661030115	582
bin	69903.210906123	551
bin	73681.760782131	507
bin	77460.310658139	473
bin	81238.860534147	443
bin	85017.410410156	28285
scalar scenarioPRJP1.node[14].lo0.lo 	droppedPkBitError:count 	0
attr interpolationmode  none
attr source  dropPkBitError
attr title  "packets dropped/bit error, count"
scalar scenarioPRJP1.node[14].lo0.lo 	droppedPkBitError:sum(packetBytes) 	0
attr interpolationmode  none
attr source  dropPkBitError
attr title  "packets dropped/bit error, sum(packetBytes)"
scalar scenarioPRJP1.node[14].lo0.lo 	rcvdPkFromHL:count 	5
attr interpolationmode  none
attr source  packetReceivedFromUpper
attr title  "packets received from higher layer, count"
scalar scenarioPRJP1.node[14].lo0.lo 	rcvdPkFromHL:sum(packetBytes) 	280
attr interpolationmode  none
attr source  packetReceivedFromUpper
attr title  "packets received from higher layer, sum(packetBytes)"
scalar scenarioPRJP1.node[14].lo0.lo 	passedUpPk:count 	5
attr interpolationmode  none
attr source  packetSentToUpper
attr title  "packets passed to higher layer, count"
scalar scenarioPRJP1.node[14].lo0.lo 	passedUpPk:sum(packetBytes) 	280
attr interpolationmode  none
attr source  packetSentToUpper
attr title  "packets passed to higher layer, sum(packetBytes)"
scalar scenarioPRJP1.node[2].app 	"Total sent" 	5015
scalar scenarioPRJP1.node[2].app 	"Total received" 	4168
scalar scenarioPRJP1.node[2].app 	"Total deleted" 	18
scalar scenarioPRJP1.node[2].app 	dropPk:count 	18
attr interpolationmode  none
attr source  dropPk
attr title  "packets dropped, count"
scalar scenarioPRJP1.node[2].app 	dropPk:sum(packetBytes) 	9216
attr interpolationmode  none
attr source  dropPk
attr title  "packets dropped, sum(packetBytes)"
scalar scenarioPRJP1.node[2].app 	outOfOrderPk:count 	397
attr interpolationmode  none
attr source  outOfOrderPk
attr title  "packets received out of order, count"
scalar scenarioPRJP1.node[2].app 	outOfOrderPk:sum(packetBytes) 	203264
attr interpolationmode  none
attr source  outOfOrderPk
attr title  "packets received out of order, sum(packetBytes)"
scalar scenarioPRJP1.node[2].app 	rcvdPk:count 	4168
attr interpolationmode  none
attr source  rcvdPk
attr title  "packets received, count"
scalar scenarioPRJP1.node[2].app 	rcvdPk:sum(packetBytes) 	2134016
attr interpolationmode  none
attr source  rcvdPk
attr title  "packets received, sum(packetBytes)"
statistic scenarioPRJP1.node[2].app 	endToEndDelay:histogram
field count 4168
field mean 0.6086729580383
field stddev 2.1843328353305
field sum 2536.9488891036
field sqrsum 21426.220685964
field min 0.000891911312
field max 19.919007879956
attr interpolationmode  none
attr source  messageAge(rcvdPk)
attr title  "delay, histogram"
attr unit  s
bin	-INF	0
bin	-1.0023461296835	0
bin	-0.86857242194637	0
bin	-0.73479871420923	0
bin	-0.6010250064721	0
bin	-0.46725129873497	0
bin	-0.33347759099783	0
bin	-0.1997038832607	0
bin	-0.065930175523567	3031
bin	0.067843532213567	465
bin	0.2016172399507	47
bin	0.33539094768783	133
bin	0.46916465542497	3
bin	0.6029383631621	4
bin	0.73671207089923	74
bin	0.87048577863637	27
bin	1.0042594863735	13
bin	1.1380331941106	3
bin	1.2718069018478	8
bin	1.4055806095849	44
bin	1.539354317322	4
bin	1.6731280250592	1
bin	1.8069017327963	3
bin	1.9406754405334	9
bin	2.0744491482706	3
bin	2.2082228560077	30
bin	2.3419965637448	11
bin	2.475770271482	2
bin	2.6095439792191	1
bin	2.7433176869562	3
bin	2.8770913946934	3
bin	3.0108651024305	246
scalar scenarioPRJP1.node[2].app 	sentPk:count 	5015
attr interpolationmode  none
attr source  sentPk
attr title  "packets sent, count"
scalar scenarioPRJP1.node[2].app 	sentPk:sum(packetBytes) 	2567680
attr interpolationmode  none
attr source  sentPk
attr title  "packets sent, sum(packetBytes)"
scalar scenarioPRJP1.node[2].udp 	droppedPkBadChecksum:count 	0
attr interpolationmode  none
attr title  "packets dropped (checksum error), count"
scalar scenarioPRJP1.node[2].udp 	droppedPkWrongPort:count 	20
attr interpolationmode  none
attr title  "packets dropped (wrong port), count"
scalar scenarioPRJP1.node[2].udp 	passedUpPk:count 	4583
attr interpolationmode  none
attr title  "packets passed up, count"
scalar scenarioPRJP1.node[2].udp 	rcvdPk:count 	4603
attr interpolationmode  none
attr source  rcvdPk
attr title  "packets received, count"
scalar scenarioPRJP1.node[2].udp 	rcvdPk:sum(packetBytes) 	2393560
attr interpolationmode  none
attr source  rcvdPk
attr title  "packets received, sum(packetBytes)"
scalar scenarioPRJP1.node[2].udp 	sentPk:count 	5015
attr interpolationmode  none
attr source  sentPk
attr title  "packets sent, count"
scalar scenarioPRJP1.node[2].udp 	sentPk:sum(packetBytes) 	2607800
attr interpolationmode  none
attr source  sentPk
attr title  "packets sent, sum(packetBytes)"
scalar scenarioPRJP1.node[2].networkLayer.arp 	failedARPResolution:count 	2
attr title  "ARP failed resolutions, count"
scalar scenarioPRJP1.node[2].networkLayer.arp 	completedARPResolution:count 	1419
attr title  "ARP completed resolutions, count"
scalar scenarioPRJP1.node[2].networkLayer.arp 	initiatedARPResolution:count 	59
attr title  "ARP initiated resolutions, count"
scalar scenarioPRJP1.node[2].networkLayer.arp 	sentReply:count 	68
attr title  "ARP replies sent, count"
scalar scenarioPRJP1.node[2].networkLayer.arp 	sentReq:count 	87
attr title  "ARP request sent, count"
scalar scenarioPRJP1.node[2].mobility 	startTime 	0.1
scalar scenarioPRJP1.node[2].mobility 	totalTime 	1899.9
scalar scenarioPRJP1.node[2].mobility 	stopTime 	1900
scalar scenarioPRJP1.node[2].mobility 	minSpeed 	2.4757079954675e-13
scalar scenarioPRJP1.node[2].mobility 	maxSpeed 	18.5228732429
scalar scenarioPRJP1.node[2].mobility 	totalDistance 	18262.257945024
scalar scenarioPRJP1.node[2].mobility 	totalCO2Emission 	5285.8307348031
scalar scenarioPRJP1.node[2].wlan[0].mgmt 	dataQueueLen:max 	23
attr interpolationmode  sample-hold
attr title  "data queue length, max"
scalar scenarioPRJP1.node[2].wlan[0].mgmt 	dataQueueLen:timeavg 	0
attr interpolationmode  sample-hold
attr title  "data queue length, timeavg"
scalar scenarioPRJP1.node[2].wlan[0].mgmt 	dropPkByQueue:count 	0
attr interpolationmode  none
attr source  dropPkByQueue
attr title  "packets dropped by queue, count"
scalar scenarioPRJP1.node[2].wlan[0].mgmt 	dropPkByQueue:sum(packetBytes) 	0
attr interpolationmode  none
attr source  dropPkByQueue
attr title  "packets dropped by queue, sum(packetBytes)"
scalar scenarioPRJP1.node[2].wlan[0].mac 	"number of received packets" 	26064
scalar scenarioPRJP1.node[2].wlan[0].mac 	"number of collisions" 	243746
scalar scenarioPRJP1.node[2].wlan[0].mac 	"number of internal collisions" 	6
scalar scenarioPRJP1.node[2].wlan[0].mac 	"number of retry for AC 0" 	21624
scalar scenarioPRJP1.node[2].wlan[0].mac 	"number of retry for AC 1" 	46
scalar scenarioPRJP1.node[2].wlan[0].mac 	"number of retry for AC 2" 	0
scalar scenarioPRJP1.node[2].wlan[0].mac 	"number of retry for AC 3" 	0
scalar scenarioPRJP1.node[2].wlan[0].mac 	"sent and received bits" 	66258880
scalar scenarioPRJP1.node[2].wlan[0].mac 	"sent packet within AC 0" 	23937
scalar scenarioPRJP1.node[2].wlan[0].mac 	"sent packet within AC 1" 	105
scalar scenarioPRJP1.node[2].wlan[0].mac 	"sent packet within AC 2" 	0
scalar scenarioPRJP1.node[2].wlan[0].mac 	"sent packet within AC 3" 	0
scalar scenarioPRJP1.node[2].wlan[0].mac 	"sent in TXOP " 	0
scalar scenarioPRJP1.node[2].wlan[0].mac 	"sentWithoutRetry AC 0" 	15405
scalar scenarioPRJP1.node[2].wlan[0].mac 	"sentWithoutRetry AC 1" 	84
scalar scenarioPRJP1.node[2].wlan[0].mac 	"sentWithoutRetry AC 2" 	0
scalar scenarioPRJP1.node[2].wlan[0].mac 	"sentWithoutRetry AC 3" 	0
scalar scenarioPRJP1.node[2].wlan[0].mac 	"numGivenUp AC 0" 	511
scalar scenarioPRJP1.node[2].wlan[0].mac 	"numGivenUp AC 1" 	0
scalar scenarioPRJP1.node[2].wlan[0].mac 	"numGivenUp AC 2" 	0
scalar scenarioPRJP1.node[2].wlan[0].mac 	"numGivenUp AC 3" 	0
scalar scenarioPRJP1.node[2].wlan[0].mac 	"numDropped AC 0" 	0
scalar scenarioPRJP1.node[2].wlan[0].mac 	"numDropped AC 1" 	0
scalar scenarioPRJP1.node[2].wlan[0].mac 	"numDropped AC 2" 	0
scalar scenarioPRJP1.node[2].wlan[0].mac 	"numDropped AC 3" 	0
scalar scenarioPRJP1.node[2].wlan[0].mac 	rcvdPkFromLL:count 	1561644
attr interpolationmode  none
attr source  packetReceivedFromLower
attr title  "packets received from lower layer, count"
scalar scenarioPRJP1.node[2].wlan[0].mac 	rcvdPkFromLL:sum(packetBytes) 	279606712
attr interpolationmode  none
attr source  packetReceivedFromLower
attr title  "packets received from lower layer, sum(packetBytes)"
scalar scenarioPRJP1.node[2].wlan[0].mac 	sentDownPk:count 	93014
attr interpolationmode  none
attr source  packetSentToLower
attr title  "packets sent to lower layer, count"
scalar scenarioPRJP1.node[2].wlan[0].mac 	sentDownPk:sum(packetBytes) 	17363740
attr interpolationmode  none
attr source  packetSentToLower
attr title  "packets sent to lower layer, sum(packetBytes)"
scalar scenarioPRJP1.node[2].wlan[0].mac 	rcvdPkFromHL:count 	45286
[...]
attr interpolationmode  none
attr source  packetSentToUpper
attr title  "packets passed to higher layer, sum(packetBytes)"
statistic scenarioPRJP1.node[12].wlan[0].radio 	radioChannel:histogram
field count 1
field mean 3
field stddev -nan
field sum 3
field sqrsum 9
field min 3
field max 3
attr interpolationmode  sample-hold
attr source  radioChannelChanged
attr title  "Radio channel, histogram"
bin	-INF	0
bin	2	0
bin	3	1
bin	4	0
scalar scenarioPRJP1.node[12].wlan[0].radio 	transmissionState:count 	319616
attr interpolationmode  sample-hold
attr source  transmissionStateChanged
attr title  "Radio transmission state, count"
scalar scenarioPRJP1.node[12].wlan[0].radio 	receptionState:count 	3461974
attr interpolationmode  sample-hold
attr source  receptionStateChanged
attr title  "Radio reception state, count"
scalar scenarioPRJP1.node[12].wlan[0].radio 	radioMode:count 	159810
attr interpolationmode  sample-hold
attr source  radioModeChanged
attr title  "Radio mode, count"
statistic scenarioPRJP1.node[12].wlan[0].radio 	symbolErrorRate:histogram
field count 0
field mean -nan
field stddev -nan
field sum 0
field sqrsum 0
field min -nan
field max -nan
attr source  symbolErrorRate
attr title  "Symbol error rate, histogram"
bin	-INF	0
bin	-0.5	0
bin	-0.46666666666667	0
bin	-0.43333333333333	0
bin	-0.4	0
bin	-0.36666666666667	0
bin	-0.33333333333333	0
bin	-0.3	0
bin	-0.26666666666667	0
bin	-0.23333333333333	0
bin	-0.2	0
bin	-0.16666666666667	0
bin	-0.13333333333333	0
bin	-0.1	0
bin	-0.066666666666667	0
bin	-0.033333333333333	0
bin	0	0
bin	0.033333333333333	0
bin	0.066666666666667	0
bin	0.1	0
bin	0.13333333333333	0
bin	0.16666666666667	0
bin	0.2	0
bin	0.23333333333333	0
bin	0.26666666666667	0
bin	0.3	0
bin	0.33333333333333	0
bin	0.36666666666667	0
bin	0.4	0
bin	0.43333333333333	0
bin	0.46666666666667	0
bin	0.5	0
statistic scenarioPRJP1.node[12].wlan[0].radio 	bitErrorRate:histogram
field count 0
field mean -nan
field stddev -nan
field sum 0
field sqrsum 0
field min -nan
field max -nan
attr source  bitErrorRate
attr title  "Bit error rate, histogram"
bin	-INF	0
bin	-0.5	0
bin	-0.46666666666667	0
bin	-0.43333333333333	0
bin	-0.4	0
bin	-0.36666666666667	0
bin	-0.33333333333333	0
bin	-0.3	0
bin	-0.26666666666667	0
bin	-0.23333333333333	0
bin	-0.2	0
bin	-0.16666666666667	0
bin	-0.13333333333333	0
bin	-0.1	0
bin	-0.066666666666667	0
bin	-0.033333333333333	0
bin	0	0
bin	0.033333333333333	0
bin	0.066666666666667	0
bin	0.1	0
bin	0.13333333333333	0
bin	0.16666666666667	0
bin	0.2	0
bin	0.23333333333333	0
bin	0.26666666666667	0
bin	0.3	0
bin	0.33333333333333	0
bin	0.36666666666667	0
bin	0.4	0
bin	0.43333333333333	0
bin	0.46666666666667	0
bin	0.5	0
statistic scenarioPRJP1.node[12].wlan[0].radio 	packetErrorRate:histogram
field count 1548016
field mean 0.15210638428648
field stddev 0.35597669320532
field sum 235463.11657763
field sqrsum 231978.98473769
field min 0
field max 1
attr source  packetErrorRate
attr title  "Packet error rate, histogram"
bin	-INF	0
bin	-0.5	0
bin	-0.43333333333333	0
bin	-0.36666666666667	0
bin	-0.3	0
bin	-0.23333333333333	0
bin	-0.16666666666667	0
bin	-0.1	0
bin	-0.033333333333333	1298400
bin	0.033333333333333	5690
bin	0.1	2710
bin	0.16666666666667	1963
bin	0.23333333333333	1480
bin	0.3	1304
bin	0.36666666666667	1112
bin	0.43333333333333	975
bin	0.5	932
bin	0.56666666666667	894
bin	0.63333333333333	904
bin	0.7	959
bin	0.76666666666667	1076
bin	0.83333333333333	1272
bin	0.9	1943
bin	0.96666666666667	226402
bin	1.0333333333333	0
bin	1.1	0
bin	1.1666666666667	0
bin	1.2333333333333	0
bin	1.3	0
bin	1.3666666666667	0
bin	1.4333333333333	0
bin	1.5	0
statistic scenarioPRJP1.node[12].wlan[0].radio 	minSNIR:histogram
field count 1548016
field mean 56950.074618176
field stddev 1031391.1285454
field sum 88159626710.131
field sqrsum 1.6517489915796e+18
field min 5.9613488217238e-06
field max 157597848.96124
attr source  minSNIR
attr title  "Min SNIR, histogram"
bin	-INF	0
bin	-6291684.30434	0
bin	-5452793.0591773	0
bin	-4613901.8140146	0
bin	-3775010.5688519	0
bin	-2936119.3236891	0
bin	-2097228.0785264	0
bin	-1258336.8333637	0
bin	-419445.588201	1533137
bin	419445.65696172	5661
bin	1258336.9021244	1994
bin	2097228.1472871	1127
bin	2936119.3924499	784
bin	3775010.6376126	569
bin	4613901.8827753	510
bin	5452793.127938	420
bin	6291684.3731007	371
bin	7130575.6182634	353
bin	7969466.8634262	289
bin	8808358.1085889	259
bin	9647249.3537516	221
bin	10486140.598914	205
bin	11325031.844077	194
bin	12163923.08924	165
bin	13002814.334402	155
bin	13841705.579565	153
bin	14680596.824728	110
bin	15519488.069891	96
bin	16358379.315053	76
bin	17197270.560216	81
bin	18036161.805379	83
bin	18875053.050541	1003
scalar scenarioPRJP1.node[12].lo0.lo 	droppedPkBitError:count 	0
attr interpolationmode  none
attr source  dropPkBitError
attr title  "packets dropped/bit error, count"
scalar scenarioPRJP1.node[12].lo0.lo 	droppedPkBitError:sum(packetBytes) 	0
attr interpolationmode  none
attr source  dropPkBitError
attr title  "packets dropped/bit error, sum(packetBytes)"
scalar scenarioPRJP1.node[12].lo0.lo 	rcvdPkFromHL:count 	7
attr interpolationmode  none
attr source  packetReceivedFromUpper
attr title  "packets received from higher layer, count"
scalar scenarioPRJP1.node[12].lo0.lo 	rcvdPkFromHL:sum(packetBytes) 	392
attr interpolationmode  none
attr source  packetReceivedFromUpper
attr title  "packets received from higher layer, sum(packetBytes)"
scalar scenarioPRJP1.node[12].lo0.lo 	passedUpPk:count 	7
attr interpolationmode  none
attr source  packetSentToUpper
attr title  "packets passed to higher layer, count"
scalar scenarioPRJP1.node[12].lo0.lo 	passedUpPk:sum(packetBytes) 	392
attr interpolationmode  none
attr source  packetSentToUpper
attr title  "packets passed to higher layer, sum(packetBytes)"
scalar scenarioPRJP1.node[24].app 	"Total sent" 	5011
scalar scenarioPRJP1.node[24].app 	"Total received" 	4104
scalar scenarioPRJP1.node[24].app 	"Total deleted" 	23
scalar scenarioPRJP1.node[24].app 	dropPk:count 	23
attr interpolationmode  none
attr source  dropPk
attr title  "packets dropped, count"
scalar scenarioPRJP1.node[24].app 	dropPk:sum(packetBytes) 	11776
attr interpolationmode  none
attr source  dropPk
attr title  "packets dropped, sum(packetBytes)"
scalar scenarioPRJP1.node[24].app 	outOfOrderPk:count 	414
attr interpolationmode  none
attr source  outOfOrderPk
attr title  "packets received out of order, count"
scalar scenarioPRJP1.node[24].app 	outOfOrderPk:sum(packetBytes) 	211968
attr interpolationmode  none
attr source  outOfOrderPk
attr title  "packets received out of order, sum(packetBytes)"
scalar scenarioPRJP1.node[24].app 	rcvdPk:count 	4104
attr interpolationmode  none
attr source  rcvdPk
attr title  "packets received, count"
scalar scenarioPRJP1.node[24].app 	rcvdPk:sum(packetBytes) 	2101248
attr interpolationmode  none
attr source  rcvdPk
attr title  "packets received, sum(packetBytes)"
statistic scenarioPRJP1.node[24].app 	endToEndDelay:histogram
field count 4104
field mean 0.72676386573779
field stddev 2.3189096734466
field sum 2982.6389049879
field sqrsum 24230.908708687
field min 0.00088256042
field max 19.140563913417
attr interpolationmode  none
attr source  messageAge(rcvdPk)
attr title  "delay, histogram"
attr unit  s
bin	-INF	0
bin	-7.201146285104	0
bin	-6.240859862928	0
bin	-5.280573440752	0
bin	-4.320287018576	0
bin	-3.3600005964	0
bin	-2.399714174224	0
bin	-1.439427752048	0
bin	-0.479141329872	3527
bin	0.481145092304	131
bin	1.44143151448	120
bin	2.401717936656	47
bin	3.362004358832	34
bin	4.322290781008	39
bin	5.282577203184	48
bin	6.24286362536	27
bin	7.203150047536	11
bin	8.163436469712	28
bin	9.123722891888	9
bin	10.084009314064	16
bin	11.04429573624	10
bin	12.004582158416	11
bin	12.964868580592	10
bin	13.925155002768	19
bin	14.885441424944	2
bin	15.84572784712	7
bin	16.806014269296	3
bin	17.766300691472	1
bin	18.726587113648	4
bin	19.686873535824	0
bin	20.647159958	0
bin	21.607446380176	0
scalar scenarioPRJP1.node[24].app 	sentPk:count 	5011
attr interpolationmode  none
attr source  sentPk
attr title  "packets sent, count"
scalar scenarioPRJP1.node[24].app 	sentPk:sum(packetBytes) 	2565632
attr interpolationmode  none
attr source  sentPk
attr title  "packets sent, sum(packetBytes)"
scalar scenarioPRJP1.node[24].udp 	droppedPkBadChecksum:count 	0
attr interpolationmode  none
attr title  "packets dropped (checksum error), count"
scalar scenarioPRJP1.node[24].udp 	droppedPkWrongPort:count 	2
attr interpolationmode  none
attr title  "packets dropped (wrong port), count"
scalar scenarioPRJP1.node[24].udp 	passedUpPk:count 	4541
attr interpolationmode  none
attr title  "packets passed up, count"
scalar scenarioPRJP1.node[24].udp 	rcvdPk:count 	4543
attr interpolationmode  none
attr source  rcvdPk
attr title  "packets received, count"
scalar scenarioPRJP1.node[24].udp 	rcvdPk:sum(packetBytes) 	2362360
attr interpolationmode  none
attr source  rcvdPk
attr title  "packets received, sum(packetBytes)"
scalar scenarioPRJP1.node[24].udp 	sentPk:count 	5011
attr interpolationmode  none
attr source  sentPk
attr title  "packets sent, count"
scalar scenarioPRJP1.node[24].udp 	sentPk:sum(packetBytes) 	2605720
attr interpolationmode  none
attr source  sentPk
attr title  "packets sent, sum(packetBytes)"
scalar scenarioPRJP1.node[24].networkLayer.arp 	failedARPResolution:count 	5
attr title  "ARP failed resolutions, count"
scalar scenarioPRJP1.node[24].networkLayer.arp 	completedARPResolution:count 	1424
attr title  "ARP completed resolutions, count"
scalar scenarioPRJP1.node[24].networkLayer.arp 	initiatedARPResolution:count 	67
attr title  "ARP initiated resolutions, count"
scalar scenarioPRJP1.node[24].networkLayer.arp 	sentReply:count 	35
attr title  "ARP replies sent, count"
scalar scenarioPRJP1.node[24].networkLayer.arp 	sentReq:count 	108
attr title  "ARP request sent, count"
scalar scenarioPRJP1.node[24].mobility 	startTime 	2.5
scalar scenarioPRJP1.node[24].mobility 	totalTime 	1897.5
scalar scenarioPRJP1.node[24].mobility 	stopTime 	1900
scalar scenarioPRJP1.node[24].mobility 	minSpeed 	2.4755575993239e-13
scalar scenarioPRJP1.node[24].mobility 	maxSpeed 	17.740468938934
scalar scenarioPRJP1.node[24].mobility 	totalDistance 	20056.03059038
scalar scenarioPRJP1.node[24].mobility 	totalCO2Emission 	5270.8539216617
scalar scenarioPRJP1.node[24].wlan[0].mgmt 	dataQueueLen:max 	5
attr interpolationmode  sample-hold
attr title  "data queue length, max"
scalar scenarioPRJP1.node[24].wlan[0].mgmt 	dataQueueLen:timeavg 	0
attr interpolationmode  sample-hold
attr title  "data queue length, timeavg"
scalar scenarioPRJP1.node[24].wlan[0].mgmt 	dropPkByQueue:count 	0
attr interpolationmode  none
attr source  dropPkByQueue
attr title  "packets dropped by queue, count"
scalar scenarioPRJP1.node[24].wlan[0].mgmt 	dropPkByQueue:sum(packetBytes) 	0
attr interpolationmode  none
attr source  dropPkByQueue
attr title  "packets dropped by queue, sum(packetBytes)"
scalar scenarioPRJP1.node[24].wlan[0].mac 	"number of received packets" 	18880
scalar scenarioPRJP1.node[24].wlan[0].mac 	"number of collisions" 	242089
scalar scenarioPRJP1.node[24].wlan[0].mac 	"number of internal collisions" 	1
scalar scenarioPRJP1.node[24].wlan[0].mac 	"number of retry for AC 0" 	22289
scalar scenarioPRJP1.node[24].wlan[0].mac 	"number of retry for AC 1" 	4
scalar scenarioPRJP1.node[24].wlan[0].mac 	"number of retry for AC 2" 	0
scalar scenarioPRJP1.node[24].wlan[0].mac 	"number of retry for AC 3" 	0
scalar scenarioPRJP1.node[24].wlan[0].mac 	"sent and received bits" 	52188960
scalar scenarioPRJP1.node[24].wlan[0].mac 	"sent packet within AC 0" 	15851
scalar scenarioPRJP1.node[24].wlan[0].mac 	"sent packet within AC 1" 	22
scalar scenarioPRJP1.node[24].wlan[0].mac 	"sent packet within AC 2" 	0
scalar scenarioPRJP1.node[24].wlan[0].mac 	"sent packet within AC 3" 	0
scalar scenarioPRJP1.node[24].wlan[0].mac 	"sent in TXOP " 	0
scalar scenarioPRJP1.node[24].wlan[0].mac 	"sentWithoutRetry AC 0" 	8769
scalar scenarioPRJP1.node[24].wlan[0].mac 	"sentWithoutRetry AC 1" 	19
scalar scenarioPRJP1.node[24].wlan[0].mac 	"sentWithoutRetry AC 2" 	0
scalar scenarioPRJP1.node[24].wlan[0].mac 	"sentWithoutRetry AC 3" 	0
scalar scenarioPRJP1.node[24].wlan[0].mac 	"numGivenUp AC 0" 	714
scalar scenarioPRJP1.node[24].wlan[0].mac 	"numGivenUp AC 1" 	0
scalar scenarioPRJP1.node[24].wlan[0].mac 	"numGivenUp AC 2" 	0
scalar scenarioPRJP1.node[24].wlan[0].mac 	"numGivenUp AC 3" 	0
scalar scenarioPRJP1.node[24].wlan[0].mac 	"numDropped AC 0" 	0
scalar scenarioPRJP1.node[24].wlan[0].mac 	"numDropped AC 1" 	0
scalar scenarioPRJP1.node[24].wlan[0].mac 	"numDropped AC 2" 	0
scalar scenarioPRJP1.node[24].wlan[0].mac 	"numDropped AC 3" 	0
scalar scenarioPRJP1.node[24].wlan[0].mac 	rcvdPkFromLL:count 	1546989
attr interpolationmode  none
attr source  packetReceivedFromLower
attr title  "packets received from lower layer, count"
scalar scenarioPRJP1.node[24].wlan[0].mac 	rcvdPkFromLL:sum(packetBytes) 	276455680
attr interpolationmode  none
attr source  packetReceivedFromLower
attr title  "packets received from lower layer, sum(packetBytes)"
scalar scenarioPRJP1.node[24].wlan[0].mac 	sentDownPk:count 	75031
attr interpolationmode  none
attr source  packetSentToLower
attr title  "packets sent to lower layer, count"
scalar scenarioPRJP1.node[24].wlan[0].mac 	sentDownPk:sum(packetBytes) 	16443332
attr interpolationmode  none
attr source  packetSentToLower
attr title  "packets sent to lower layer, sum(packetBytes)"
scalar scenarioPRJP1.node[24].wlan[0].mac 	rcvdPkFromHL:count 	33859
attr interpolationmode  none
attr source  packetReceivedFromUpper
attr title  "packets received from higher layer, count"
scalar scenarioPRJP1.node[24].wlan[0].mac 	rcvdPkFromHL:sum(packetBytes) 	6870432
attr interpolationmode  none
attr source  packetReceivedFromUpper
attr title  "packets received from higher layer, sum(packetBytes)"
scalar scenarioPRJP1.node[24].wlan[0].mac 	passedUpPk:count 	302021
attr interpolationmode  none
attr source  packetSentToUpper
attr title  "packets passed to higher layer, count"
scalar scenarioPRJP1.node[24].wlan[0].mac 	passedUpPk:sum(packetBytes) 	29911672
attr interpolationmode  none
attr source  packetSentToUpper
attr title  "packets passed to higher layer, sum(packetBytes)"
statistic scenarioPRJP1.node[24].wlan[0].radio 	radioChannel:histogram
field count 1
field mean 3
field stddev -nan
field sum 3
field sqrsum 9
field min 3
field max 3
attr interpolationmode  sample-hold
attr source  radioChannelChanged
attr title  "Radio channel, histogram"
bin	-INF	0
bin	2	0
bin	3	1
bin	4	0
scalar scenarioPRJP1.node[24].wlan[0].radio 	transmissionState:count 	300124
attr interpolationmode  sample-hold
attr source  transmissionStateChanged
attr title  "Radio transmission state, count"
scalar scenarioPRJP1.node[24].wlan[0].radio 	receptionState:count 	3449005
attr interpolationmode  sample-hold
attr source  receptionStateChanged
attr title  "Radio reception state, count"
scalar scenarioPRJP1.node[24].wlan[0].radio 	radioMode:count 	150064
attr interpolationmode  sample-hold
attr source  radioModeChanged
attr title  "Radio mode, count"
statistic scenarioPRJP1.node[24].wlan[0].radio 	symbolErrorRate:histogram
field count 0
field mean -nan
field stddev -nan
field sum 0
field sqrsum 0
field min -nan
field max -nan
attr source  symbolErrorRate
attr title  "Symbol error rate, histogram"
bin	-INF	0
bin	-0.5	0
bin	-0.46666666666667	0
bin	-0.43333333333333	0
bin	-0.4	0
bin	-0.36666666666667	0
bin	-0.33333333333333	0
bin	-0.3	0
bin	-0.26666666666667	0
bin	-0.23333333333333	0
bin	-0.2	0
bin	-0.16666666666667	0
bin	-0.13333333333333	0
bin	-0.1	0
bin	-0.066666666666667	0
bin	-0.033333333333333	0
bin	0	0
bin	0.033333333333333	0
bin	0.066666666666667	0
bin	0.1	0
bin	0.13333333333333	0
bin	0.16666666666667	0
bin	0.2	0
bin	0.23333333333333	0
bin	0.26666666666667	0
bin	0.3	0
bin	0.33333333333333	0
bin	0.36666666666667	0
bin	0.4	0
bin	0.43333333333333	0
bin	0.46666666666667	0
bin	0.5	0
statistic scenarioPRJP1.node[24].wlan[0].radio 	bitErrorRate:histogram
field count 0
field mean -nan
field stddev -nan
field sum 0
field sqrsum 0
field min -nan
field max -nan
attr source  bitErrorRate
attr title  "Bit error rate, histogram"
bin	-INF	0
bin	-0.5	0
bin	-0.46666666666667	0
bin	-0.43333333333333	0
bin	-0.4	0
bin	-0.36666666666667	0
bin	-0.33333333333333	0
bin	-0.3	0
bin	-0.26666666666667	0
bin	-0.23333333333333	0
bin	-0.2	0
bin	-0.16666666666667	0
bin	-0.13333333333333	0
bin	-0.1	0
bin	-0.066666666666667	0
bin	-0.033333333333333	0
bin	0	0
bin	0.033333333333333	0
bin	0.066666666666667	0
bin	0.1	0
bin	0.13333333333333	0
bin	0.16666666666667	0
bin	0.2	0
bin	0.23333333333333	0
bin	0.26666666666667	0
bin	0.3	0
bin	0.33333333333333	0
bin	0.36666666666667	0
bin	0.4	0
bin	0.43333333333333	0
bin	0.46666666666667	0
bin	0.5	0
statistic scenarioPRJP1.node[24].wlan[0].radio 	packetErrorRate:histogram
field count 1546989
field mean 0.15050266140488
field stddev 0.35442405193524
field sum 232825.96166408
field sqrsum 229368.00356672
field min 0
field max 1
attr source  packetErrorRate
attr title  "Packet error rate, histogram"
bin	-INF	0
bin	-0.5	0
bin	-0.43333333333333	0
bin	-0.36666666666667	0
bin	-0.3	0
bin	-0.23333333333333	0
bin	-0.16666666666667	0
bin	-0.1	0
bin	-0.033333333333333	1300150
bin	0.033333333333333	5568
bin	0.1	2793
bin	0.16666666666667	1829
bin	0.23333333333333	1496
bin	0.3	1288
bin	0.36666666666667	1122
bin	0.43333333333333	1019
bin	0.5	924
bin	0.56666666666667	888
bin	0.63333333333333	868
bin	0.7	931
bin	0.76666666666667	1059
bin	0.83333333333333	1280
bin	0.9	1951
bin	0.96666666666667	223823
bin	1.0333333333333	0
bin	1.1	0
bin	1.1666666666667	0
bin	1.2333333333333	0
bin	1.3	0
bin	1.3666666666667	0
bin	1.4333333333333	0
bin	1.5	0
statistic scenarioPRJP1.node[24].wlan[0].radio 	minSNIR:histogram
field count 1546989
field mean 131030.11181433
field stddev 3146735.9262071
field sum 202702141645.54
field sqrsum 1.5344753253341e+19
field min 6.6771733460275e-07
field max 1118077989.4612
attr source  minSNIR
attr title  "Min SNIR, histogram"
bin	-INF	0
bin	-7188508.1969579	0
bin	-6230040.4238213	0
bin	-5271572.6506846	0
bin	-4313104.877548	0
bin	-3354637.1044113	0
bin	-2396169.3312747	0
bin	-1437701.558138	0
bin	-479233.78500135	1522589
bin	479233.98813531	7876
bin	1437701.761272	3455
bin	2396169.5344086	2045
bin	3354637.3075453	1483
bin	4313105.0806819	1171
bin	5271572.8538186	967
bin	6230040.6269552	828
bin	7188508.4000919	699
bin	8146976.1732285	566
bin	9105443.9463652	479
bin	10063911.719502	406
bin	11022379.492639	405
bin	11980847.265775	356
bin	12939315.038912	313
bin	13897782.812048	282
bin	14856250.585185	262
bin	15814718.358322	225
bin	16773186.131458	191
bin	17731653.904595	209
bin	18690121.677732	139
bin	19648589.450868	122
bin	20607057.224005	138
bin	21565524.997142	1783
scalar scenarioPRJP1.node[24].lo0.lo 	droppedPkBitError:count 	0
attr interpolationmode  none
attr source  dropPkBitError
attr title  "packets dropped/bit error, count"
scalar scenarioPRJP1.node[24].lo0.lo 	droppedPkBitError:sum(packetBytes) 	0
attr interpolationmode  none
attr source  dropPkBitError
attr title  "packets dropped/bit error, sum(packetBytes)"
scalar scenarioPRJP1.node[24].lo0.lo 	rcvdPkFromHL:count 	0
attr interpolationmode  none
attr source  packetReceivedFromUpper
attr title  "packets received from higher layer, count"
scalar scenarioPRJP1.node[24].lo0.lo 	rcvdPkFromHL:sum(packetBytes) 	0
attr interpolationmode  none
attr source  packetReceivedFromUpper
attr title  "packets received from higher layer, sum(packetBytes)"
scalar scenarioPRJP1.node[24].lo0.lo 	passedUpPk:count 	0
attr interpolationmode  none
attr source  packetSentToUpper
attr title  "packets passed to higher layer, count"
scalar scenarioPRJP1.node[24].lo0.lo 	passedUpPk:sum(packetBytes) 	0
attr interpolationmode  none
attr source  packetSentToUpper
attr title  "packets passed to higher layer, sum(packetBytes)"
