version 2
run AODVRouting-LNS-25n-6-20150721-22:26:50-10436
attr configname AODVRouting-LNS-25n
attr datetime 20150721-22:26:50
attr experiment AODVRouting-LNS-25n
attr inifile omnetpp.ini
attr iterationvars ""
attr iterationvars2 $repetition=6
attr measurement ""
attr network Prj_Part1_propag.scenarioPRJP1
attr processid 10436
attr repetition 6
attr replication #6
attr resultdir results
attr runnumber 6
attr seedset 6

scalar scenarioPRJP1.radioMedium.propagation 	"Arrival computation count" 	15958080
scalar scenarioPRJP1.radioMedium 	"transmission count" 	664920
scalar scenarioPRJP1.radioMedium 	"radio frame send count" 	15958080
scalar scenarioPRJP1.radioMedium 	"reception computation count" 	15880836
scalar scenarioPRJP1.radioMedium 	"interference computation count" 	46432250
scalar scenarioPRJP1.radioMedium 	"reception decision computation count" 	1727305
scalar scenarioPRJP1.radioMedium 	"listening decision computation count" 	29031025
scalar scenarioPRJP1.radioMedium 	"reception cache hit" 	76.634369600891
attr unit  %
scalar scenarioPRJP1.radioMedium 	"interference cache hit" 	50
attr unit  %
scalar scenarioPRJP1.radioMedium 	"noise cache hit" 	0
attr unit  %
scalar scenarioPRJP1.radioMedium 	"snir cache hit" 	0
attr unit  %
scalar scenarioPRJP1.radioMedium 	"reception decision cache hit" 	0
attr unit  %
scalar scenarioPRJP1.node[0].app 	"Total sent" 	2611
scalar scenarioPRJP1.node[0].app 	"Total received" 	206
scalar scenarioPRJP1.node[0].app 	"Total deleted" 	154
scalar scenarioPRJP1.node[0].app 	dropPk:count 	154
attr interpolationmode  none
attr source  dropPk
attr title  "packets dropped, count"
scalar scenarioPRJP1.node[0].app 	dropPk:sum(packetBytes) 	78848
attr interpolationmode  none
attr source  dropPk
attr title  "packets dropped, sum(packetBytes)"
scalar scenarioPRJP1.node[0].app 	outOfOrderPk:count 	96
attr interpolationmode  none
attr source  outOfOrderPk
attr title  "packets received out of order, count"
scalar scenarioPRJP1.node[0].app 	outOfOrderPk:sum(packetBytes) 	49152
attr interpolationmode  none
attr source  outOfOrderPk
attr title  "packets received out of order, sum(packetBytes)"
scalar scenarioPRJP1.node[0].app 	rcvdPk:count 	206
attr interpolationmode  none
attr source  rcvdPk
attr title  "packets received, count"
scalar scenarioPRJP1.node[0].app 	rcvdPk:sum(packetBytes) 	105472
attr interpolationmode  none
attr source  rcvdPk
attr title  "packets received, sum(packetBytes)"
statistic scenarioPRJP1.node[0].app 	endToEndDelay:histogram
field count 206
field mean 2.5737556914793
field stddev 4.8762386885752
field sum 530.19367244474
field sqrsum 6239.0182503723
field min 0.000946236533
field max 19.060910947598
attr interpolationmode  none
attr source  messageAge(rcvdPk)
attr title  "delay, histogram"
attr unit  s
bin	-INF	0
bin	-9.529019355208	0
bin	-8.2583557861944	0
bin	-6.9876922171808	0
bin	-5.7170286481672	0
bin	-4.4463650791536	0
bin	-3.17570151014	0
bin	-1.9050379411264	0
bin	-0.6343743721128	139
bin	0.6362891969008	13
bin	1.9069527659144	6
bin	3.177616334928	6
bin	4.4482799039416	6
bin	5.7189434729552	2
bin	6.9896070419688	4
bin	8.2602706109824	5
bin	9.530934179996	4
bin	10.80159774901	3
bin	12.072261318023	3
bin	13.342924887037	4
bin	14.61358845605	4
bin	15.884252025064	4
bin	17.154915594078	0
bin	18.425579163091	3
bin	19.696242732105	0
bin	20.966906301118	0
bin	22.237569870132	0
bin	23.508233439146	0
bin	24.778897008159	0
bin	26.049560577173	0
bin	27.320224146186	0
bin	28.5908877152	0
scalar scenarioPRJP1.node[0].app 	sentPk:count 	2611
attr interpolationmode  none
attr source  sentPk
attr title  "packets sent, count"
scalar scenarioPRJP1.node[0].app 	sentPk:sum(packetBytes) 	1336832
attr interpolationmode  none
attr source  sentPk
attr title  "packets sent, sum(packetBytes)"
scalar scenarioPRJP1.node[0].udp 	droppedPkBadChecksum:count 	0
attr interpolationmode  none
attr title  "packets dropped (checksum error), count"
scalar scenarioPRJP1.node[0].udp 	droppedPkWrongPort:count 	0
attr interpolationmode  none
attr title  "packets dropped (wrong port), count"
scalar scenarioPRJP1.node[0].udp 	passedUpPk:count 	456
attr interpolationmode  none
attr title  "packets passed up, count"
scalar scenarioPRJP1.node[0].udp 	rcvdPk:count 	456
attr interpolationmode  none
attr source  rcvdPk
attr title  "packets received, count"
scalar scenarioPRJP1.node[0].udp 	rcvdPk:sum(packetBytes) 	237120
attr interpolationmode  none
attr source  rcvdPk
attr title  "packets received, sum(packetBytes)"
scalar scenarioPRJP1.node[0].udp 	sentPk:count 	2611
attr interpolationmode  none
attr source  sentPk
attr title  "packets sent, count"
scalar scenarioPRJP1.node[0].udp 	sentPk:sum(packetBytes) 	1357720
attr interpolationmode  none
attr source  sentPk
attr title  "packets sent, sum(packetBytes)"
scalar scenarioPRJP1.node[0].networkLayer.arp 	failedARPResolution:count 	260
attr title  "ARP failed resolutions, count"
scalar scenarioPRJP1.node[0].networkLayer.arp 	completedARPResolution:count 	796
attr title  "ARP completed resolutions, count"
scalar scenarioPRJP1.node[0].networkLayer.arp 	initiatedARPResolution:count 	298
attr title  "ARP initiated resolutions, count"
scalar scenarioPRJP1.node[0].networkLayer.arp 	sentReply:count 	21
attr title  "ARP replies sent, count"
scalar scenarioPRJP1.node[0].networkLayer.arp 	sentReq:count 	851
attr title  "ARP request sent, count"
scalar scenarioPRJP1.node[0].mobility 	startTime 	0.1
scalar scenarioPRJP1.node[0].mobility 	totalTime 	949.9
scalar scenarioPRJP1.node[0].mobility 	stopTime 	950
scalar scenarioPRJP1.node[0].mobility 	minSpeed 	2.4758631114563e-13
scalar scenarioPRJP1.node[0].mobility 	maxSpeed 	18.826685034386
scalar scenarioPRJP1.node[0].mobility 	totalDistance 	10706.134244278
scalar scenarioPRJP1.node[0].mobility 	totalCO2Emission 	2778.119294057
scalar scenarioPRJP1.node[0].wlan[0].mgmt 	dataQueueLen:max 	80
attr interpolationmode  sample-hold
attr title  "data queue length, max"
scalar scenarioPRJP1.node[0].wlan[0].mgmt 	dataQueueLen:timeavg 	0.00036852298201916
attr interpolationmode  sample-hold
attr title  "data queue length, timeavg"
scalar scenarioPRJP1.node[0].wlan[0].mgmt 	dropPkByQueue:count 	0
attr interpolationmode  none
attr source  dropPkByQueue
attr title  "packets dropped by queue, count"
scalar scenarioPRJP1.node[0].wlan[0].mgmt 	dropPkByQueue:sum(packetBytes) 	0
attr interpolationmode  none
attr source  dropPkByQueue
attr title  "packets dropped by queue, sum(packetBytes)"
scalar scenarioPRJP1.node[0].wlan[0].mac 	"number of received packets" 	3715
scalar scenarioPRJP1.node[0].wlan[0].mac 	"number of collisions" 	6296
scalar scenarioPRJP1.node[0].wlan[0].mac 	"number of internal collisions" 	0
scalar scenarioPRJP1.node[0].wlan[0].mac 	"number of retry for AC 0" 	9321
scalar scenarioPRJP1.node[0].wlan[0].mac 	"number of retry for AC 1" 	0
scalar scenarioPRJP1.node[0].wlan[0].mac 	"number of retry for AC 2" 	0
scalar scenarioPRJP1.node[0].wlan[0].mac 	"number of retry for AC 3" 	0
scalar scenarioPRJP1.node[0].wlan[0].mac 	"sent and received bits" 	8726272
scalar scenarioPRJP1.node[0].wlan[0].mac 	"sent packet within AC 0" 	1020
scalar scenarioPRJP1.node[0].wlan[0].mac 	"sent packet within AC 1" 	2
scalar scenarioPRJP1.node[0].wlan[0].mac 	"sent packet within AC 2" 	0
scalar scenarioPRJP1.node[0].wlan[0].mac 	"sent packet within AC 3" 	0
scalar scenarioPRJP1.node[0].wlan[0].mac 	"sent in TXOP " 	0
scalar scenarioPRJP1.node[0].wlan[0].mac 	"sentWithoutRetry AC 0" 	923
scalar scenarioPRJP1.node[0].wlan[0].mac 	"sentWithoutRetry AC 1" 	2
scalar scenarioPRJP1.node[0].wlan[0].mac 	"sentWithoutRetry AC 2" 	0
scalar scenarioPRJP1.node[0].wlan[0].mac 	"sentWithoutRetry AC 3" 	0
scalar scenarioPRJP1.node[0].wlan[0].mac 	"numGivenUp AC 0" 	1534
scalar scenarioPRJP1.node[0].wlan[0].mac 	"numGivenUp AC 1" 	0
scalar scenarioPRJP1.node[0].wlan[0].mac 	"numGivenUp AC 2" 	0
scalar scenarioPRJP1.node[0].wlan[0].mac 	"numGivenUp AC 3" 	0
scalar scenarioPRJP1.node[0].wlan[0].mac 	"numDropped AC 0" 	17
scalar scenarioPRJP1.node[0].wlan[0].mac 	"numDropped AC 1" 	0
scalar scenarioPRJP1.node[0].wlan[0].mac 	"numDropped AC 2" 	0
scalar scenarioPRJP1.node[0].wlan[0].mac 	"numDropped AC 3" 	0
scalar scenarioPRJP1.node[0].wlan[0].mac 	rcvdPkFromLL:count 	61653
attr interpolationmode  none
attr source  packetReceivedFromLower
attr title  "packets received from lower layer, count"
scalar scenarioPRJP1.node[0].wlan[0].mac 	rcvdPkFromLL:sum(packetBytes) 	16870140
attr interpolationmode  none
attr source  packetReceivedFromLower
attr title  "packets received from lower layer, sum(packetBytes)"
scalar scenarioPRJP1.node[0].wlan[0].mac 	sentDownPk:count 	23499
attr interpolationmode  none
attr source  packetSentToLower
attr title  "packets sent to lower layer, count"
scalar scenarioPRJP1.node[0].wlan[0].mac 	sentDownPk:sum(packetBytes) 	6341422
attr interpolationmode  none
attr source  packetSentToLower
attr title  "packets sent to lower layer, sum(packetBytes)"
scalar scenarioPRJP1.node[0].wlan[0].mac 	rcvdPkFromHL:count 	10480
attr interpolationmode  none
attr source  packetReceivedFromUpper
attr title  "packets received from higher layer, count"
scalar scenarioPRJP1.node[0].wlan[0].mac 	rcvdPkFromHL:sum(packetBytes) 	1834172
attr interpolationmode  none
attr source  packetReceivedFromUpper
attr title  "packets received from higher layer, sum(packetBytes)"
scalar scenarioPRJP1.node[0].wlan[0].mac 	passedUpPk:count 	18494
attr interpolationmode  none
attr source  packetSentToUpper
attr title  "packets passed to higher layer, count"
scalar scenarioPRJP1.node[0].wlan[0].mac 	passedUpPk:sum(packetBytes) 	2356796
attr interpolationmode  none
attr source  packetSentToUpper
attr title  "packets passed to higher layer, sum(packetBytes)"
statistic scenarioPRJP1.node[0].wlan[0].radio 	radioChannel:histogram
field count 1
field mean 3
field stddev -nan
field sum 3
field sqrsum 9
field min 3
field max 3
attr interpolationmode  sample-hold
attr source  radioChannelChanged
attr title  "Radio channel, histogram"
bin	-INF	0
bin	2	0
bin	3	1
bin	4	0
scalar scenarioPRJP1.node[0].wlan[0].radio 	transmissionState:count 	93996
attr interpolationmode  sample-hold
attr source  transmissionStateChanged
attr title  "Radio transmission state, count"
scalar scenarioPRJP1.node[0].wlan[0].radio 	receptionState:count 	171342
attr interpolationmode  sample-hold
attr source  receptionStateChanged
attr title  "Radio reception state, count"
scalar scenarioPRJP1.node[0].wlan[0].radio 	radioMode:count 	47000
attr interpolationmode  sample-hold
attr source  radioModeChanged
attr title  "Radio mode, count"
statistic scenarioPRJP1.node[0].wlan[0].radio 	symbolErrorRate:histogram
field count 0
field mean -nan
field stddev -nan
field sum 0
field sqrsum 0
field min -nan
field max -nan
attr source  symbolErrorRate
attr title  "Symbol error rate, histogram"
bin	-INF	0
bin	-0.5	0
bin	-0.46666666666667	0
bin	-0.43333333333333	0
bin	-0.4	0
bin	-0.36666666666667	0
bin	-0.33333333333333	0
bin	-0.3	0
bin	-0.26666666666667	0
bin	-0.23333333333333	0
bin	-0.2	0
bin	-0.16666666666667	0
bin	-0.13333333333333	0
bin	-0.1	0
bin	-0.066666666666667	0
bin	-0.033333333333333	0
bin	-6.9388939039072e-18	0
bin	0.033333333333333	0
bin	0.066666666666667	0
bin	0.1	0
bin	0.13333333333333	0
bin	0.16666666666667	0
bin	0.2	0
bin	0.23333333333333	0
bin	0.26666666666667	0
bin	0.3	0
bin	0.33333333333333	0
bin	0.36666666666667	0
bin	0.4	0
bin	0.43333333333333	0
bin	0.46666666666667	0
bin	0.5	0
statistic scenarioPRJP1.node[0].wlan[0].radio 	bitErrorRate:histogram
field count 0
field mean -nan
field stddev -nan
field sum 0
field sqrsum 0
field min -nan
field max -nan
attr source  bitErrorRate
attr title  "Bit error rate, histogram"
bin	-INF	0
bin	-0.5	0
bin	-0.46666666666667	0
bin	-0.43333333333333	0
bin	-0.4	0
bin	-0.36666666666667	0
bin	-0.33333333333333	0
bin	-0.3	0
bin	-0.26666666666667	0
bin	-0.23333333333333	0
bin	-0.2	0
bin	-0.16666666666667	0
bin	-0.13333333333333	0
bin	-0.1	0
bin	-0.066666666666667	0
bin	-0.033333333333333	0
bin	-6.9388939039072e-18	0
bin	0.033333333333333	0
bin	0.066666666666667	0
bin	0.1	0
bin	0.13333333333333	0
bin	0.16666666666667	0
bin	0.2	0
bin	0.23333333333333	0
bin	0.26666666666667	0
bin	0.3	0
bin	0.33333333333333	0
bin	0.36666666666667	0
bin	0.4	0
bin	0.43333333333333	0
bin	0.46666666666667	0
bin	0.5	0
statistic scenarioPRJP1.node[0].wlan[0].radio 	packetErrorRate:histogram
field count 61653
field mean 0.094078517201071
field stddev 0.28460995600285
field sum 5800.2228209976
field sqrsum 5539.6626560884
field min 0
field max 1
attr source  packetErrorRate
attr title  "Packet error rate, histogram"
bin	-INF	0
bin	-0.5	0
bin	-0.43333333333333	0
bin	-0.36666666666667	0
bin	-0.3	0
bin	-0.23333333333333	0
bin	-0.16666666666667	0
bin	-0.1	0
bin	-0.033333333333333	54776
bin	0.033333333333333	430
bin	0.1	216
bin	0.16666666666667	152
bin	0.23333333333333	115
bin	0.3	81
bin	0.36666666666667	101
bin	0.43333333333333	74
bin	0.5	68
bin	0.56666666666667	73
bin	0.63333333333333	65
bin	0.7	65
bin	0.76666666666667	72
bin	0.83333333333333	90
bin	0.9	130
bin	0.96666666666667	5145
bin	1.0333333333333	0
bin	1.1	0
bin	1.1666666666667	0
bin	1.2333333333333	0
bin	1.3	0
bin	1.3666666666667	0
bin	1.4333333333333	0
bin	1.5	0
statistic scenarioPRJP1.node[0].wlan[0].radio 	minSNIR:histogram
field count 61653
field mean 6352.6260906105
field stddev 36491.593469723
field sum 391658456.36441
field sqrsum 84586106688902
field min 0.00015981107809596
field max 1539223.5287102
attr source  minSNIR
attr title  "Min SNIR, histogram"
bin	-INF	0
bin	-431.52950589087	0
bin	-373.8956706949	0
bin	-316.26183549892	0
bin	-258.62800030295	0
bin	-200.99416510697	0
bin	-143.360329911	0
bin	-85.72649471502	0
bin	-28.092659519045	18485
bin	29.541175676931	2965
bin	87.175010872906	5166
bin	144.80884606888	7782
bin	202.44268126486	4023
bin	260.07651646083	2350
bin	317.71035165681	1602
bin	375.34418685278	1184
bin	432.97802204876	978
bin	490.61185724474	762
bin	548.24569244071	615
bin	605.87952763669	562
bin	663.51336283266	495
bin	721.14719802864	434
bin	778.78103322461	366
bin	836.41486842059	328
bin	894.04870361656	334
bin	951.68253881254	278
bin	1009.3163740085	280
bin	1066.9502092045	230
bin	1124.5840444005	242
bin	1182.2178795964	231
bin	1239.8517147924	207
bin	1297.4855499884	11754
scalar scenarioPRJP1.node[0].lo0.lo 	droppedPkBitError:count 	0
attr interpolationmode  none
attr source  dropPkBitError
attr title  "packets dropped/bit error, count"
scalar scenarioPRJP1.node[0].lo0.lo 	droppedPkBitError:sum(packetBytes) 	0
attr interpolationmode  none
attr source  dropPkBitError
attr title  "packets dropped/bit error, sum(packetBytes)"
scalar scenarioPRJP1.node[0].lo0.lo 	rcvdPkFromHL:count 	0
attr interpolationmode  none
attr source  packetReceivedFromUpper
attr title  "packets received from higher layer, count"
scalar scenarioPRJP1.node[0].lo0.lo 	rcvdPkFromHL:sum(packetBytes) 	0
attr interpolationmode  none
attr source  packetReceivedFromUpper
attr title  "packets received from higher layer, sum(packetBytes)"
scalar scenarioPRJP1.node[0].lo0.lo 	passedUpPk:count 	0
attr interpolationmode  none
attr source  packetSentToUpper
attr title  "packets passed to higher layer, count"
scalar scenarioPRJP1.node[0].lo0.lo 	passedUpPk:sum(packetBytes) 	0
attr interpolationmode  none
attr source  packetSentToUpper
attr title  "packets passed to higher layer, sum(packetBytes)"
scalar scenarioPRJP1.node[13].app 	"Total sent" 	2615
scalar scenarioPRJP1.node[13].app 	"Total received" 	185
scalar scenarioPRJP1.node[13].app 	"Total deleted" 	102
scalar scenarioPRJP1.node[13].app 	dropPk:count 	102
attr interpolationmode  none
attr source  dropPk
attr title  "packets dropped, count"
scalar scenarioPRJP1.node[13].app 	dropPk:sum(packetBytes) 	52224
attr interpolationmode  none
attr source  dropPk
attr title  "packets dropped, sum(packetBytes)"
scalar scenarioPRJP1.node[13].app 	outOfOrderPk:count 	76
attr interpolationmode  none
attr source  outOfOrderPk
attr title  "packets received out of order, count"
scalar scenarioPRJP1.node[13].app 	outOfOrderPk:sum(packetBytes) 	38912
attr interpolationmode  none
attr source  outOfOrderPk
attr title  "packets received out of order, sum(packetBytes)"
scalar scenarioPRJP1.node[13].app 	rcvdPk:count 	185
attr interpolationmode  none
attr source  rcvdPk
attr title  "packets received, count"
scalar scenarioPRJP1.node[13].app 	rcvdPk:sum(packetBytes) 	94720
attr interpolationmode  none
attr source  rcvdPk
attr title  "packets received, sum(packetBytes)"
statistic scenarioPRJP1.node[13].app 	endToEndDelay:histogram
field count 185
field mean 2.4178063563688
field stddev 5.3305920232889
field sum 447.29417592822
field sqrsum 6309.8695843762
field min 0.000945496046
field max 19.607852492355
attr interpolationmode  none
attr source  messageAge(rcvdPk)
attr title  "delay, histogram"
attr unit  s
bin	-INF	0
bin	-9.6941699229355	0
bin	-8.4014878284393	0
bin	-7.1088057339431	0
bin	-5.8161236394469	0
bin	-4.5234415449507	0
bin	-3.2307594504545	0
bin	-1.9380773559583	0
bin	-0.6453952614621	140
bin	0.6472868330341	6
bin	1.9399689275303	8
bin	3.2326510220265	0
bin	4.5253331165227	0
bin	5.8180152110189	3
bin	7.1106973055151	1
bin	8.4033794000113	3
bin	9.6960614945075	2
bin	10.988743589004	3
bin	12.2814256835	6
bin	13.574107777996	2
bin	14.866789872492	1
bin	16.159471966988	1
bin	17.452154061485	1
bin	18.744836155981	8
bin	20.037518250477	0
bin	21.330200344973	0
bin	22.622882439469	0
bin	23.915564533966	0
bin	25.208246628462	0
bin	26.500928722958	0
bin	27.793610817454	0
bin	29.08629291195	0
scalar scenarioPRJP1.node[13].app 	sentPk:count 	2615
attr interpolationmode  none
attr source  sentPk
attr title  "packets sent, count"
scalar scenarioPRJP1.node[13].app 	sentPk:sum(packetBytes) 	1338880
attr interpolationmode  none
attr source  sentPk
attr title  "packets sent, sum(packetBytes)"
scalar scenarioPRJP1.node[13].udp 	droppedPkBadChecksum:count 	0
attr interpolationmode  none
attr title  "packets dropped (checksum error), count"
scalar scenarioPRJP1.node[13].udp 	droppedPkWrongPort:count 	0
attr interpolationmode  none
attr title  "packets dropped (wrong port), count"
scalar scenarioPRJP1.node[13].udp 	passedUpPk:count 	363
attr interpolationmode  none
attr title  "packets passed up, count"
scalar scenarioPRJP1.node[13].udp 	rcvdPk:count 	363
attr interpolationmode  none
attr source  rcvdPk
attr title  "packets received, count"
scalar scenarioPRJP1.node[13].udp 	rcvdPk:sum(packetBytes) 	188760
attr interpolationmode  none
attr source  rcvdPk
attr title  "packets received, sum(packetBytes)"
scalar scenarioPRJP1.node[13].udp 	sentPk:count 	2615
attr interpolationmode  none
attr source  sentPk
attr title  "packets sent, count"
scalar scenarioPRJP1.node[13].udp 	sentPk:sum(packetBytes) 	1359800
attr interpolationmode  none
attr source  sentPk
attr title  "packets sent, sum(packetBytes)"
scalar scenarioPRJP1.node[13].networkLayer.arp 	failedARPResolution:count 	178
attr title  "ARP failed resolutions, count"
scalar scenarioPRJP1.node[13].networkLayer.arp 	completedARPResolution:count 	761
attr title  "ARP completed resolutions, count"
scalar scenarioPRJP1.node[13].networkLayer.arp 	initiatedARPResolution:count 	218
attr title  "ARP initiated resolutions, count"
scalar scenarioPRJP1.node[13].networkLayer.arp 	sentReply:count 	33
attr title  "ARP replies sent, count"
scalar scenarioPRJP1.node[13].networkLayer.arp 	sentReq:count 	617
attr title  "ARP request sent, count"
scalar scenarioPRJP1.node[13].mobility 	startTime 	2.5
scalar scenarioPRJP1.node[13].mobility 	totalTime 	947.5
scalar scenarioPRJP1.node[13].mobility 	stopTime 	950
scalar scenarioPRJP1.node[13].mobility 	minSpeed 	2.4755953510174e-13
scalar scenarioPRJP1.node[13].mobility 	maxSpeed 	16.206298207676
scalar scenarioPRJP1.node[13].mobility 	totalDistance 	10293.818524358
scalar scenarioPRJP1.node[13].mobility 	totalCO2Emission 	2477.4331498531
scalar scenarioPRJP1.node[13].wlan[0].mgmt 	dataQueueLen:max 	49
attr interpolationmode  sample-hold
attr title  "data queue length, max"
scalar scenarioPRJP1.node[13].wlan[0].mgmt 	dataQueueLen:timeavg 	0
attr interpolationmode  sample-hold
attr title  "data queue length, timeavg"
scalar scenarioPRJP1.node[13].wlan[0].mgmt 	dropPkByQueue:count 	0
attr interpolationmode  none
attr source  dropPkByQueue
attr title  "packets dropped by queue, count"
scalar scenarioPRJP1.node[13].wlan[0].mgmt 	dropPkByQueue:sum(packetBytes) 	0
attr interpolationmode  none
attr source  dropPkByQueue
attr title  "packets dropped by queue, sum(packetBytes)"
scalar scenarioPRJP1.node[13].wlan[0].mac 	"number of received packets" 	3794
scalar scenarioPRJP1.node[13].wlan[0].mac 	"number of collisions" 	6510
scalar scenarioPRJP1.node[13].wlan[0].mac 	"number of internal collisions" 	0
scalar scenarioPRJP1.node[13].wlan[0].mac 	"number of retry for AC 0" 	10443
scalar scenarioPRJP1.node[13].wlan[0].mac 	"number of retry for AC 1" 	0
scalar scenarioPRJP1.node[13].wlan[0].mac 	"number of retry for AC 2" 	0
scalar scenarioPRJP1.node[13].wlan[0].mac 	"number of retry for AC 3" 	0
scalar scenarioPRJP1.node[13].wlan[0].mac 	"sent and received bits" 	8609216
scalar scenarioPRJP1.node[13].wlan[0].mac 	"sent packet within AC 0" 	1500
scalar scenarioPRJP1.node[13].wlan[0].mac 	"sent packet within AC 1" 	0
scalar scenarioPRJP1.node[13].wlan[0].mac 	"sent packet within AC 2" 	0
scalar scenarioPRJP1.node[13].wlan[0].mac 	"sent packet within AC 3" 	0
scalar scenarioPRJP1.node[13].wlan[0].mac 	"sent in TXOP " 	0
scalar scenarioPRJP1.node[13].wlan[0].mac 	"sentWithoutRetry AC 0" 	1404
scalar scenarioPRJP1.node[13].wlan[0].mac 	"sentWithoutRetry AC 1" 	0
scalar scenarioPRJP1.node[13].wlan[0].mac 	"sentWithoutRetry AC 2" 	0
scalar scenarioPRJP1.node[13].wlan[0].mac 	"sentWithoutRetry AC 3" 	0
scalar scenarioPRJP1.node[13].wlan[0].mac 	"numGivenUp AC 0" 	1718
scalar scenarioPRJP1.node[13].wlan[0].mac 	"numGivenUp AC 1" 	0
scalar scenarioPRJP1.node[13].wlan[0].mac 	"numGivenUp AC 2" 	0
scalar scenarioPRJP1.node[13].wlan[0].mac 	"numGivenUp AC 3" 	0
scalar scenarioPRJP1.node[13].wlan[0].mac 	"numDropped AC 0" 	1
scalar scenarioPRJP1.node[13].wlan[0].mac 	"numDropped AC 1" 	0
scalar scenarioPRJP1.node[13].wlan[0].mac 	"numDropped AC 2" 	0
scalar scenarioPRJP1.node[13].wlan[0].mac 	"numDropped AC 3" 	0
scalar scenarioPRJP1.node[13].wlan[0].mac 	rcvdPkFromLL:count 	57401
attr interpolationmode  none
attr source  packetReceivedFromLower
attr title  "packets received from lower layer, count"
scalar scenarioPRJP1.node[13].wlan[0].mac 	rcvdPkFromLL:sum(packetBytes) 	15837878
attr interpolationmode  none
attr source  packetReceivedFromLower
attr title  "packets received from lower layer, sum(packetBytes)"
scalar scenarioPRJP1.node[13].wlan[0].mac 	sentDownPk:count 	25845
attr interpolationmode  none
attr source  packetSentToLower
attr title  "packets sent to lower layer, count"
scalar scenarioPRJP1.node[13].wlan[0].mac 	sentDownPk:sum(packetBytes) 	6837392
attr interpolationmode  none
attr source  packetSentToLower
attr title  "packets sent to lower layer, sum(packetBytes)"
scalar scenarioPRJP1.node[13].wlan[0].mac 	rcvdPkFromHL:count 	11609
attr interpolationmode  none
attr source  packetReceivedFromUpper
attr title  "packets received from higher layer, count"
scalar scenarioPRJP1.node[13].wlan[0].mac 	rcvdPkFromHL:sum(packetBytes) 	1884088
attr interpolationmode  none
attr source  packetReceivedFromUpper
attr title  "packets received from higher layer, sum(packetBytes)"
scalar scenarioPRJP1.node[13].wlan[0].mac 	passedUpPk:count 	19060
attr interpolationmode  none
attr source  packetSentToUpper
attr title  "packets passed to higher layer, count"
scalar scenarioPRJP1.node[13].wlan[0].mac 	passedUpPk:sum(packetBytes) 	2268108
attr interpolationmode  none
attr source  packetSentToUpper
attr title  "packets passed to higher layer, sum(packetBytes)"
statistic scenarioPRJP1.node[13].wlan[0].radio 	radioChannel:histogram
field count 1
field mean 3
field stddev -nan
field sum 3
field sqrsum 9
field min 3
field max 3
attr interpolationmode  sample-hold
attr source  radioChannelChanged
attr title  "Radio channel, histogram"
bin	-INF	0
bin	2	0
bin	3	1
bin	4	0
scalar scenarioPRJP1.node[13].wlan[0].radio 	transmissionState:count 	103380
attr interpolationmode  sample-hold
attr source  transmissionStateChanged
attr title  "Radio transmission state, count"
scalar scenarioPRJP1.node[13].wlan[0].radio 	receptionState:count 	167159
attr interpolationmode  sample-hold
attr source  receptionStateChanged
attr title  "Radio reception state, count"
scalar scenarioPRJP1.node[13].wlan[0].radio 	radioMode:count 	51692
attr interpolationmode  sample-hold
attr source  radioModeChanged
attr title  "Radio mode, count"
statistic scenarioPRJP1.node[13].wlan[0].radio 	symbolErrorRate:histogram
field count 0
field mean -nan
field stddev -nan
field sum 0
field sqrsum 0
field min -nan
field max -nan
attr source  symbolErrorRate
attr title  "Symbol error rate, histogram"
bin	-INF	0
bin	-0.5	0
bin	-0.46666666666667	0
bin	-0.43333333333333	0
bin	-0.4	0
bin	-0.36666666666667	0
bin	-0.33333333333333	0
bin	-0.3	0
bin	-0.26666666666667	0
bin	-0.23333333333333	0
bin	-0.2	0
bin	-0.16666666666667	0
bin	-0.13333333333333	0
bin	-0.1	0
bin	-0.066666666666667	0
bin	-0.033333333333333	0
bin	-6.9388939039072e-18	0
bin	0.033333333333333	0
bin	0.066666666666667	0
bin	0.1	0
bin	0.13333333333333	0
bin	0.16666666666667	0
bin	0.2	0
bin	0.23333333333333	0
bin	0.26666666666667	0
bin	0.3	0
bin	0.33333333333333	0
bin	0.36666666666667	0
bin	0.4	0
bin	0.43333333333333	0
bin	0.46666666666667	0
bin	0.5	0
statistic scenarioPRJP1.node[13].wlan[0].radio 	bitErrorRate:histogram
field count 0
field mean -nan
field stddev -nan
field sum 0
field sqrsum 0
field min -nan
field max -nan
attr source  bitErrorRate
attr title  "Bit error rate, histogram"
bin	-INF	0
bin	-0.5	0
bin	-0.46666666666667	0
bin	-0.43333333333333	0
bin	-0.4	0
bin	-0.36666666666667	0
bin	-0.33333333333333	0
bin	-0.3	0
bin	-0.26666666666667	0
bin	-0.23333333333333	0
bin	-0.2	0
bin	-0.16666666666667	0
bin	-0.13333333333333	0
bin	-0.1	0
bin	-0.066666666666667	0
bin	-0.033333333333333	0
bin	-6.9388939039072e-18	0
bin	0.033333333333333	0
bin	0.066666666666667	0
bin	0.1	0
bin	0.13333333333333	0
bin	0.16666666666667	0
bin	0.2	0
bin	0.23333333333333	0
bin	0.26666666666667	0
bin	0.3	0
bin	0.33333333333333	0
bin	0.36666666666667	0
bin	0.4	0
bin	0.43333333333333	0
bin	0.46666666666667	0
bin	0.5	0
statistic scenarioPRJP1.node[13].wlan[0].radio 	packetErrorRate:histogram
field count 57401
field mean 0.10459708018876
field stddev 0.29838005432496
field sum 6003.9769999151
field sqrsum 5738.3581651203
field min 0
field max 1
attr source  packetErrorRate
attr title  "Packet error rate, histogram"
bin	-INF	0
bin	-0.5	0
bin	-0.43333333333333	0
bin	-0.36666666666667	0
bin	-0.3	0
bin	-0.23333333333333	0
bin	-0.16666666666667	0
bin	-0.1	0
bin	-0.033333333333333	50324
bin	0.033333333333333	428
bin	0.1	202
bin	0.16666666666667	137
bin	0.23333333333333	123
bin	0.3	107
bin	0.36666666666667	93
bin	0.43333333333333	69
bin	0.5	72
bin	0.56666666666667	75
bin	0.63333333333333	77
bin	0.7	67
bin	0.76666666666667	58
bin	0.83333333333333	97
bin	0.9	141
bin	0.96666666666667	5331
bin	1.0333333333333	0
bin	1.1	0
bin	1.1666666666667	0
bin	1.2333333333333	0
bin	1.3	0
bin	1.3666666666667	0
bin	1.4333333333333	0
bin	1.5	0
statistic scenarioPRJP1.node[13].wlan[0].radio 	minSNIR:histogram
field count 57401
field mean 1240.4728724847
field stddev 6924.7109275542
field sum 71204383.353494
field sqrsum 2840750176044.8
field min 0.00066978026124402
field max 419980.66427987
attr source  minSNIR
attr title  "Min SNIR, histogram"
bin	-INF	0
bin	-509.53112530299	0
bin	-441.53730058985	0
bin	-373.54347587671	0
bin	-305.54965116358	0
bin	-237.55582645044	0
bin	-169.5620017373	0
bin	-101.56817702416	0
bin	-33.574352311025	20326
bin	34.419472402113	2559
bin	102.41329711525	10580
bin	170.40712182839	7152
bin	238.40094654153	3523
bin	306.39477125466	1948
bin	374.3885959678	1297
bin	442.38242068094	896
bin	510.37624539408	650
bin	578.37007010721	537
bin	646.36389482035	423
bin	714.35771953349	353
bin	782.35154424663	285
bin	850.34536895976	288
bin	918.3391936729	243
bin	986.33301838604	212
bin	1054.3268430992	173
bin	1122.3206678123	161
bin	1190.3144925255	156
bin	1258.3083172386	117
bin	1326.3021419517	138
bin	1394.2959666649	124
bin	1462.289791378	117
bin	1530.2836160911	5143
scalar scenarioPRJP1.node[13].lo0.lo 	droppedPkBitError:count 	0
attr interpolationmode  none
attr source  dropPkBitError
attr title  "packets dropped/bit error, count"
scalar scenarioPRJP1.node[13].lo0.lo 	droppedPkBitError:sum(packetBytes) 	0
attr interpolationmode  none
attr source  dropPkBitError
attr title  "packets dropped/bit error, sum(packetBytes)"
scalar scenarioPRJP1.node[13].lo0.lo 	rcvdPkFromHL:count 	0
attr interpolationmode  none
attr source  packetReceivedFromUpper
attr title  "packets received from higher layer, count"
scalar scenarioPRJP1.node[13].lo0.lo 	rcvdPkFromHL:sum(packetBytes) 	0
attr interpolationmode  none
attr source  packetReceivedFromUpper
attr title  "packets received from higher layer, sum(packetBytes)"
scalar scenarioPRJP1.node[13].lo0.lo 	passedUpPk:count 	0
attr interpolationmode  none
attr source  packetSentToUpper
attr title  "packets passed to higher layer, count"
scalar scenarioPRJP1.node[13].lo0.lo 	passedUpPk:sum(packetBytes) 	0
attr interpolationmode  none
attr source  packetSentToUpper
attr title  "packets passed to higher layer, sum(packetBytes)"
scalar scenarioPRJP1.node[1].app 	"Total sent" 	2590
scalar scenarioPRJP1.node[1].app 	"Total received" 	266
scalar scenarioPRJP1.node[1].app 	"Total deleted" 	145
scalar scenarioPRJP1.node[1].app 	dropPk:count 	145
attr interpolationmode  none
attr source  dropPk
attr title  "packets dropped, count"
scalar scenarioPRJP1.node[1].app 	dropPk:sum(packetBytes) 	74240
attr interpolationmode  none
attr source  dropPk
attr title  "packets dropped, sum(packetBytes)"
scalar scenarioPRJP1.node[1].app 	outOfOrderPk:count 	97
attr interpolationmode  none
attr source  outOfOrderPk
attr title  "packets received out of order, count"
scalar scenarioPRJP1.node[1].app 	outOfOrderPk:sum(packetBytes) 	49664
attr interpolationmode  none
attr source  outOfOrderPk
attr title  "packets received out of order, sum(packetBytes)"
scalar scenarioPRJP1.node[1].app 	rcvdPk:count 	266
attr interpolationmode  none
attr source  rcvdPk
attr title  "packets received, count"
scalar scenarioPRJP1.node[1].app 	rcvdPk:sum(packetBytes) 	136192
attr interpolationmode  none
attr source  rcvdPk
attr title  "packets received, sum(packetBytes)"
statistic scenarioPRJP1.node[1].app 	endToEndDelay:histogram
field count 266
field mean 2.9017322503416
field stddev 5.4355065458856
field sum 771.86077859085
field sqrsum 10069.087137758
field min 0.000945421771
field max 19.323853288316
attr interpolationmode  none
attr source  messageAge(rcvdPk)
attr title  "delay, histogram"
attr unit  s
bin	-INF	0
bin	-9.5990166668955	0
bin	-8.3190182706026	0
bin	-7.0390198743098	0
bin	-5.7590214780169	0
bin	-4.479023081724	0
bin	-3.1990246854312	0
bin	-1.9190262891383	0
bin	-0.63902789284543	180
bin	0.64097050344743	13
bin	1.9209688997403	11
bin	3.2009672960332	5
bin	4.480965692326	6
bin	5.7609640886189	4
bin	7.0409624849118	5
bin	8.3209608812046	4
bin	9.6009592774975	3
bin	10.88095767379	5
bin	12.160956070083	8
bin	13.440954466376	3
bin	14.720952862669	2
bin	16.000951258962	5
bin	17.280949655255	6
bin	18.560948051548	6
bin	19.84094644784	0
bin	21.120944844133	0
bin	22.400943240426	0
bin	23.680941636719	0
bin	24.960940033012	0
bin	26.240938429305	0
bin	27.520936825598	0
bin	28.80093522189	0
scalar scenarioPRJP1.node[1].app 	sentPk:count 	2590
attr interpolationmode  none
attr source  sentPk
attr title  "packets sent, count"
scalar scenarioPRJP1.node[1].app 	sentPk:sum(packetBytes) 	1326080
attr interpolationmode  none
attr source  sentPk
attr title  "packets sent, sum(packetBytes)"
scalar scenarioPRJP1.node[1].udp 	droppedPkBadChecksum:count 	0
attr interpolationmode  none
attr title  "packets dropped (checksum error), count"
scalar scenarioPRJP1.node[1].udp 	droppedPkWrongPort:count 	0
attr interpolationmode  none
attr title  "packets dropped (wrong port), count"
scalar scenarioPRJP1.node[1].udp 	passedUpPk:count 	508
attr interpolationmode  none
attr title  "packets passed up, count"
scalar scenarioPRJP1.node[1].udp 	rcvdPk:count 	508
attr interpolationmode  none
attr source  rcvdPk
attr title  "packets received, count"
scalar scenarioPRJP1.node[1].udp 	rcvdPk:sum(packetBytes) 	264160
attr interpolationmode  none
attr source  rcvdPk
attr title  "packets received, sum(packetBytes)"
scalar scenarioPRJP1.node[1].udp 	sentPk:count 	2590
attr interpolationmode  none
attr source  sentPk
attr title  "packets sent, count"
scalar scenarioPRJP1.node[1].udp 	sentPk:sum(packetBytes) 	1346800
attr interpolationmode  none
attr source  sentPk
attr title  "packets sent, sum(packetBytes)"
scalar scenarioPRJP1.node[1].networkLayer.arp 	failedARPResolution:count 	98
attr title  "ARP failed resolutions, count"
scalar scenarioPRJP1.node[1].networkLayer.arp 	completedARPResolution:count 	1165
attr title  "ARP completed resolutions, count"
scalar scenarioPRJP1.node[1].networkLayer.arp 	initiatedARPResolution:count 	130
attr title  "ARP initiated resolutions, count"
scalar scenarioPRJP1.node[1].networkLayer.arp 	sentReply:count 	49
attr title  "ARP replies sent, count"
scalar scenarioPRJP1.node[1].networkLayer.arp 	sentReq:count 	343
attr title  "ARP request sent, count"
scalar scenarioPRJP1.node[1].mobility 	startTime 	0.1
scalar scenarioPRJP1.node[1].mobility 	totalTime 	949.9
scalar scenarioPRJP1.node[1].mobility 	stopTime 	950
scalar scenarioPRJP1.node[1].mobility 	minSpeed 	2.475738795101e-13
scalar scenarioPRJP1.node[1].mobility 	maxSpeed 	18.436110002344
scalar scenarioPRJP1.node[1].mobility 	totalDistance 	10698.402082644
scalar scenarioPRJP1.node[1].mobility 	totalCO2Emission 	2828.315388405
scalar scenarioPRJP1.node[1].wlan[0].mgmt 	dataQueueLen:max 	69
attr interpolationmode  sample-hold
attr title  "data queue length, max"
scalar scenarioPRJP1.node[1].wlan[0].mgmt 	dataQueueLen:timeavg 	0.0012861461276734
attr interpolationmode  sample-hold
attr title  "data queue length, timeavg"
scalar scenarioPRJP1.node[1].wlan[0].mgmt 	dropPkByQueue:count 	0
attr interpolationmode  none
attr source  dropPkByQueue
attr title  "packets dropped by queue, count"
scalar scenarioPRJP1.node[1].wlan[0].mgmt 	dropPkByQueue:sum(packetBytes) 	0
attr interpolationmode  none
attr source  dropPkByQueue
attr title  "packets dropped by queue, sum(packetBytes)"
scalar scenarioPRJP1.node[1].wlan[0].mac 	"number of received packets" 	4116
scalar scenarioPRJP1.node[1].wlan[0].mac 	"number of collisions" 	6824
scalar scenarioPRJP1.node[1].wlan[0].mac 	"number of internal collisions" 	0
scalar scenarioPRJP1.node[1].wlan[0].mac 	"number of retry for AC 0" 	10803
scalar scenarioPRJP1.node[1].wlan[0].mac 	"number of retry for AC 1" 	0
scalar scenarioPRJP1.node[1].wlan[0].mac 	"number of retry for AC 2" 	0
scalar scenarioPRJP1.node[1].wlan[0].mac 	"number of retry for AC 3" 	0
scalar scenarioPRJP1.node[1].wlan[0].mac 	"sent and received bits" 	11801312
scalar scenarioPRJP1.node[1].wlan[0].mac 	"sent packet within AC 0" 	1900
scalar scenarioPRJP1.node[1].wlan[0].mac 	"sent packet within AC 1" 	0
scalar scenarioPRJP1.node[1].wlan[0].mac 	"sent packet within AC 2" 	0
scalar scenarioPRJP1.node[1].wlan[0].mac 	"sent packet within AC 3" 	0
scalar scenarioPRJP1.node[1].wlan[0].mac 	"sent in TXOP " 	0
scalar scenarioPRJP1.node[1].wlan[0].mac 	"sentWithoutRetry AC 0" 	1786
scalar scenarioPRJP1.node[1].wlan[0].mac 	"sentWithoutRetry AC 1" 	0
scalar scenarioPRJP1.node[1].wlan[0].mac 	"sentWithoutRetry AC 2" 	0
scalar scenarioPRJP1.node[1].wlan[0].mac 	"sentWithoutRetry AC 3" 	0
scalar scenarioPRJP1.node[1].wlan[0].mac 	"numGivenUp AC 0" 	1776
scalar scenarioPRJP1.node[1].wlan[0].mac 	"numGivenUp AC 1" 	0
scalar scenarioPRJP1.node[1].wlan[0].mac 	"numGivenUp AC 2" 	0
scalar scenarioPRJP1.node[1].wlan[0].mac 	"numGivenUp AC 3" 	0
scalar scenarioPRJP1.node[1].wlan[0].mac 	"numDropped AC 0" 	25
scalar scenarioPRJP1.node[1].wlan[0].mac 	"numDropped AC 1" 	0
scalar scenarioPRJP1.node[1].wlan[0].mac 	"numDropped AC 2" 	0
scalar scenarioPRJP1.node[1].wlan[0].mac 	"numDropped AC 3" 	0
scalar scenarioPRJP1.node[1].wlan[0].mac 	rcvdPkFromLL:count 	80306
attr interpolationmode  none
attr source  packetReceivedFromLower
attr title  "packets received from lower layer, count"
scalar scenarioPRJP1.node[1].wlan[0].mac 	rcvdPkFromLL:sum(packetBytes) 	22287118
attr interpolationmode  none
attr source  packetReceivedFromLower
attr title  "packets received from lower layer, sum(packetBytes)"
scalar scenarioPRJP1.node[1].wlan[0].mac 	sentDownPk:count 	28063
attr interpolationmode  none
attr source  packetSentToLower
attr title  "packets sent to lower layer, count"
scalar scenarioPRJP1.node[1].wlan[0].mac 	sentDownPk:sum(packetBytes) 	7520696
attr interpolationmode  none
attr source  packetSentToLower
attr title  "packets sent to lower layer, sum(packetBytes)"
scalar scenarioPRJP1.node[1].wlan[0].mac 	rcvdPkFromHL:count 	13169
attr interpolationmode  none
attr source  packetReceivedFromUpper
attr title  "packets received from higher layer, count"
scalar scenarioPRJP1.node[1].wlan[0].mac 	rcvdPkFromHL:sum(packetBytes) 	2332540
attr interpolationmode  none
attr source  packetReceivedFromUpper
attr title  "packets received from higher layer, sum(packetBytes)"
scalar scenarioPRJP1.node[1].wlan[0].mac 	passedUpPk:count 	27429
attr interpolationmode  none
attr source  packetSentToUpper
attr title  "packets passed to higher layer, count"
scalar scenarioPRJP1.node[1].wlan[0].mac 	passedUpPk:sum(packetBytes) 	3197864
attr interpolationmode  none
attr source  packetSentToUpper
attr title  "packets passed to higher layer, sum(packetBytes)"
statistic scenarioPRJP1.node[1].wlan[0].radio 	radioChannel:histogram
field count 1
field mean 3
field stddev -nan
field sum 3
field sqrsum 9
field min 3
field max 3
attr interpolationmode  sample-hold
attr source  radioChannelChanged
attr title  "Radio channel, histogram"
bin	-INF	0
bin	2	0
bin	3	1
bin	4	0
scalar scenarioPRJP1.node[1].wlan[0].radio 	transmissionState:count 	112252
attr interpolationmode  sample-hold
attr source  transmissionStateChanged
attr title  "Radio transmission state, count"
scalar scenarioPRJP1.node[1].wlan[0].radio 	receptionState:count 	218162
attr interpolationmode  sample-hold
attr source  receptionStateChanged
attr title  "Radio reception state, count"
scalar scenarioPRJP1.node[1].wlan[0].radio 	radioMode:count 	56128
attr interpolationmode  sample-hold
attr source  radioModeChanged
attr title  "Radio mode, count"
statistic scenarioPRJP1.node[1].wlan[0].radio 	symbolErrorRate:histogram
field count 0
field mean -nan
field stddev -nan
field sum 0
field sqrsum 0
field min -nan
field max -nan
attr source  symbolErrorRate
attr title  "Symbol error rate, histogram"
bin	-INF	0
bin	-0.5	0
bin	-0.46666666666667	0
bin	-0.43333333333333	0
bin	-0.4	0
bin	-0.36666666666667	0
bin	-0.33333333333333	0
bin	-0.3	0
bin	-0.26666666666667	0
bin	-0.23333333333333	0
bin	-0.2	0
bin	-0.16666666666667	0
bin	-0.13333333333333	0
bin	-0.1	0
bin	-0.066666666666667	0
bin	-0.033333333333333	0
bin	-6.9388939039072e-18	0
bin	0.033333333333333	0
bin	0.066666666666667	0
bin	0.1	0
bin	0.13333333333333	0
bin	0.16666666666667	0
bin	0.2	0
bin	0.23333333333333	0
bin	0.26666666666667	0
bin	0.3	0
bin	0.33333333333333	0
bin	0.36666666666667	0
bin	0.4	0
bin	0.43333333333333	0
bin	0.46666666666667	0
bin	0.5	0
statistic scenarioPRJP1.node[1].wlan[0].radio 	bitErrorRate:histogram
field count 0
field mean -nan
field stddev -nan
field sum 0
field sqrsum 0
field min -nan
field max -nan
attr source  bitErrorRate
attr title  "Bit error rate, histogram"
bin	-INF	0
bin	-0.5	0
bin	-0.46666666666667	0
bin	-0.43333333333333	0
bin	-0.4	0
bin	-0.36666666666667	0
bin	-0.33333333333333	0
bin	-0.3	0
bin	-0.26666666666667	0
bin	-0.23333333333333	0
bin	-0.2	0
bin	-0.16666666666667	0
bin	-0.13333333333333	0
bin	-0.1	0
bin	-0.066666666666667	0
bin	-0.033333333333333	0
bin	-6.9388939039072e-18	0
bin	0.033333333333333	0
bin	0.066666666666667	0
bin	0.1	0
bin	0.13333333333333	0
bin	0.16666666666667	0
bin	0.2	0
bin	0.23333333333333	0
bin	0.26666666666667	0
bin	0.3	0
bin	0.33333333333333	0
bin	0.36666666666667	0
bin	0.4	0
bin	0.43333333333333	0
bin	0.46666666666667	0
bin	0.5	0
statistic scenarioPRJP1.node[1].wlan[0].radio 	packetErrorRate:histogram
field count 80306
field mean 0.079185509357643
field stddev 0.26397553029514
field sum 6359.0715144748
field sqrsum 6099.4461040646
field min 0
field max 1
attr source  packetErrorRate
attr title  "Packet error rate, histogram"
bin	-INF	0
bin	-0.5	0
bin	-0.43333333333333	0
bin	-0.36666666666667	0
bin	-0.3	0
bin	-0.23333333333333	0
bin	-0.16666666666667	0
bin	-0.1	0
bin	-0.033333333333333	72875
bin	0.033333333333333	436
bin	0.1	218
bin	0.16666666666667	138
bin	0.23333333333333	103
bin	0.3	96
bin	0.36666666666667	79
bin	0.43333333333333	84
bin	0.5	86
bin	0.56666666666667	71
bin	0.63333333333333	65
bin	0.7	62
bin	0.76666666666667	74
bin	0.83333333333333	88
bin	0.9	104
bin	0.96666666666667	5727
bin	1.0333333333333	0
bin	1.1	0
bin	1.1666666666667	0
bin	1.2333333333333	0
bin	1.3	0
bin	1.3666666666667	0
bin	1.4333333333333	0
bin	1.5	0
statistic scenarioPRJP1.node[1].wlan[0].radio 	minSNIR:histogram
field count 80306
field mean 11420.226353578
field stddev 51651.018278673
field sum 917112697.55046
field sqrsum 2.2471353718088e+14
field min 0.00018672116599809
field max 1781047.9857466
attr source  minSNIR
attr title  "Min SNIR, histogram"
bin	-INF	0
bin	-1709.1795539587	0
bin	-1481.086725308	0
bin	-1252.9938966574	0
bin	-1024.9010680068	0
bin	-796.80823935612	0
bin	-568.71541070549	0
bin	-340.62258205485	0
bin	-112.52975340422	25474
bin	115.56307524642	23317
bin	343.65590389705	5341
bin	571.74873254768	2512
bin	799.84156119832	1615
bin	1027.934389849	1170
bin	1256.0272184996	915
bin	1484.1200471502	709
bin	1712.2128758009	628
bin	1940.3057044515	567
bin	2168.3985331021	442
bin	2396.4913617528	428
bin	2624.5841904034	415
bin	2852.677019054	393
bin	3080.7698477047	334
bin	3308.8626763553	315
bin	3536.9555050059	332
bin	3765.0483336566	326
bin	3993.1411623072	288
bin	4221.2339909578	274
bin	4449.3268196085	236
bin	4677.4196482591	228
bin	4905.5124769097	248
bin	5133.6053055604	13799
scalar scenarioPRJP1.node[1].lo0.lo 	droppedPkBitError:count 	0
attr interpolationmode  none
attr source  dropPkBitError
attr title  "packets dropped/bit error, count"
scalar scenarioPRJP1.node[1].lo0.lo 	droppedPkBitError:sum(packetBytes) 	0
attr interpolationmode  none
attr source  dropPkBitError
attr title  "packets dropped/bit error, sum(packetBytes)"
scalar scenarioPRJP1.node[1].lo0.lo 	rcvdPkFromHL:count 	0
attr interpolationmode  none
attr source  packetReceivedFromUpper
attr title  "packets received from higher layer, count"
scalar scenarioPRJP1.node[1].lo0.lo 	rcvdPkFromHL:sum(packetBytes) 	0
attr interpolationmode  none
attr source  packetReceivedFromUpper
attr title  "packets received from higher layer, sum(packetBytes)"
scalar scenarioPRJP1.node[1].lo0.lo 	passedUpPk:count 	0
attr interpolationmode  none
attr source  packetSentToUpper
attr title  "packets passed to higher layer, count"
scalar scenarioPRJP1.node[1].lo0.lo 	passedUpPk:sum(packetBytes) 	0
attr interpolationmode  none
attr source  packetSentToUpper
attr title  "packets passed to higher layer, sum(packetBytes)"
scalar scenarioPRJP1.node[14].app 	"Total sent" 	2615
scalar scenarioPRJP1.node[14].app 	"Total received" 	183
scalar scenarioPRJP1.node[14].app 	"Total deleted" 	163
scalar scenarioPRJP1.node[14].app 	dropPk:count 	163
attr interpolationmode  none
attr source  dropPk
attr title  "packets dropped, count"
scalar scenarioPRJP1.node[14].app 	dropPk:sum(packetBytes) 	83456
attr interpolationmode  none
attr source  dropPk
attr title  "packets dropped, sum(packetBytes)"
scalar scenarioPRJP1.node[14].app 	outOfOrderPk:count 	91
attr interpolationmode  none
attr source  outOfOrderPk
attr title  "packets received out of order, count"
scalar scenarioPRJP1.node[14].app 	outOfOrderPk:sum(packetBytes) 	46592
attr interpolationmode  none
attr source  outOfOrderPk
attr title  "packets received out of order, sum(packetBytes)"
scalar scenarioPRJP1.node[14].app 	rcvdPk:count 	183
attr interpolationmode  none
attr source  rcvdPk
attr title  "packets received, count"
scalar scenarioPRJP1.node[14].app 	rcvdPk:sum(packetBytes) 	93696
attr interpolationmode  none
attr source  rcvdPk
attr title  "packets received, sum(packetBytes)"
statistic scenarioPRJP1.node[14].app 	endToEndDelay:histogram
field count 183
field mean 2.2900707373441
field stddev 4.5898765563131
field sum 419.08294493398
field sqrsum 4793.9175467124
field min 0.000958022685
field max 19.455216951012
attr interpolationmode  none
attr source  messageAge(rcvdPk)
attr title  "delay, histogram"
attr unit  s
bin	-INF	0
bin	-9.426238270219	0
bin	-8.1692787644985	0
bin	-6.9123192587779	0
bin	-5.6553597530574	0
bin	-4.3984002473369	0
bin	-3.1414407416163	0
bin	-1.8844812358958	0
bin	-0.62752173017527	122
bin	0.62943777554527	16
bin	1.8863972812658	8
bin	3.1433567869863	8
bin	4.4003162927069	1
bin	5.6572757984274	2
bin	6.9142353041479	1
bin	8.1711948098685	4
bin	9.428154315589	2
bin	10.68511382131	4
bin	11.94207332703	5
bin	13.199032832751	3
bin	14.455992338471	2
bin	15.712951844192	2
bin	16.969911349912	1
bin	18.226870855633	2
bin	19.483830361353	0
bin	20.740789867074	0
bin	21.997749372794	0
bin	23.254708878515	0
bin	24.511668384235	0
bin	25.768627889956	0
bin	27.025587395676	0
bin	28.282546901397	0
scalar scenarioPRJP1.node[14].app 	sentPk:count 	2615
attr interpolationmode  none
attr source  sentPk
attr title  "packets sent, count"
scalar scenarioPRJP1.node[14].app 	sentPk:sum(packetBytes) 	1338880
attr interpolationmode  none
attr source  sentPk
attr title  "packets sent, sum(packetBytes)"
scalar scenarioPRJP1.node[14].udp 	droppedPkBadChecksum:count 	0
attr interpolationmode  none
attr title  "packets dropped (checksum error), count"
scalar scenarioPRJP1.node[14].udp 	droppedPkWrongPort:count 	0
attr interpolationmode  none
attr title  "packets dropped (wrong port), count"
scalar scenarioPRJP1.node[14].udp 	passedUpPk:count 	437
attr interpolationmode  none
attr title  "packets passed up, count"
scalar scenarioPRJP1.node[14].udp 	rcvdPk:count 	437
attr interpolationmode  none
attr source  rcvdPk
attr title  "packets received, count"
scalar scenarioPRJP1.node[14].udp 	rcvdPk:sum(packetBytes) 	227240
attr interpolationmode  none
attr source  rcvdPk
attr title  "packets received, sum(packetBytes)"
scalar scenarioPRJP1.node[14].udp 	sentPk:count 	2615
attr interpolationmode  none
attr source  sentPk
attr title  "packets sent, count"
scalar scenarioPRJP1.node[14].udp 	sentPk:sum(packetBytes) 	1359800
attr interpolationmode  none
attr source  sentPk
attr title  "packets sent, sum(packetBytes)"
scalar scenarioPRJP1.node[14].networkLayer.arp 	failedARPResolution:count 	163
attr title  "ARP failed resolutions, count"
scalar scenarioPRJP1.node[14].networkLayer.arp 	completedARPResolution:count 	868
attr title  "ARP completed resolutions, count"
scalar scenarioPRJP1.node[14].networkLayer.arp 	initiatedARPResolution:count 	201
attr title  "ARP initiated resolutions, count"
scalar scenarioPRJP1.node[14].networkLayer.arp 	sentReply:count 	35
attr title  "ARP replies sent, count"
scalar scenarioPRJP1.node[14].networkLayer.arp 	sentReq:count 	559
attr title  "ARP request sent, count"
scalar scenarioPRJP1.node[14].mobility 	startTime 	2.5
scalar scenarioPRJP1.node[14].mobility 	totalTime 	947.5
scalar scenarioPRJP1.node[14].mobility 	stopTime 	950
scalar scenarioPRJP1.node[14].mobility 	minSpeed 	2.4754226022386e-13
scalar scenarioPRJP1.node[14].mobility 	maxSpeed 	17.842142119436
scalar scenarioPRJP1.node[14].mobility 	totalDistance 	9648.0062364887
scalar scenarioPRJP1.node[14].mobility 	totalCO2Emission 	2559.452405761
scalar scenarioPRJP1.node[14].wlan[0].mgmt 	dataQueueLen:max 	79
attr interpolationmode  sample-hold
attr title  "data queue length, max"
scalar scenarioPRJP1.node[14].wlan[0].mgmt 	dataQueueLen:timeavg 	0.011119374240413
attr interpolationmode  sample-hold
attr title  "data queue length, timeavg"
scalar scenarioPRJP1.node[14].wlan[0].mgmt 	dropPkByQueue:count 	0
attr interpolationmode  none
attr source  dropPkByQueue
attr title  "packets dropped by queue, count"
scalar scenarioPRJP1.node[14].wlan[0].mgmt 	dropPkByQueue:sum(packetBytes) 	0
attr interpolationmode  none
attr source  dropPkByQueue
attr title  "packets dropped by queue, sum(packetBytes)"
scalar scenarioPRJP1.node[14].wlan[0].mac 	"number of received packets" 	3192
scalar scenarioPRJP1.node[14].wlan[0].mac 	"number of collisions" 	4788
scalar scenarioPRJP1.node[14].wlan[0].mac 	"number of internal collisions" 	1
scalar scenarioPRJP1.node[14].wlan[0].mac 	"number of retry for AC 0" 	9680
scalar scenarioPRJP1.node[14].wlan[0].mac 	"number of retry for AC 1" 	6
scalar scenarioPRJP1.node[14].wlan[0].mac 	"number of retry for AC 2" 	0
scalar scenarioPRJP1.node[14].wlan[0].mac 	"number of retry for AC 3" 	0
scalar scenarioPRJP1.node[14].wlan[0].mac 	"sent and received bits" 	8610944
scalar scenarioPRJP1.node[14].wlan[0].mac 	"sent packet within AC 0" 	796
scalar scenarioPRJP1.node[14].wlan[0].mac 	"sent packet within AC 1" 	0
scalar scenarioPRJP1.node[14].wlan[0].mac 	"sent packet within AC 2" 	0
scalar scenarioPRJP1.node[14].wlan[0].mac 	"sent packet within AC 3" 	0
scalar scenarioPRJP1.node[14].wlan[0].mac 	"sent in TXOP " 	0
scalar scenarioPRJP1.node[14].wlan[0].mac 	"sentWithoutRetry AC 0" 	712
scalar scenarioPRJP1.node[14].wlan[0].mac 	"sentWithoutRetry AC 1" 	0
scalar scenarioPRJP1.node[14].wlan[0].mac 	"sentWithoutRetry AC 2" 	0
scalar scenarioPRJP1.node[14].wlan[0].mac 	"sentWithoutRetry AC 3" 	0
scalar scenarioPRJP1.node[14].wlan[0].mac 	"numGivenUp AC 0" 	1591
scalar scenarioPRJP1.node[14].wlan[0].mac 	"numGivenUp AC 1" 	1
scalar scenarioPRJP1.node[14].wlan[0].mac 	"numGivenUp AC 2" 	0
scalar scenarioPRJP1.node[14].wlan[0].mac 	"numGivenUp AC 3" 	0
scalar scenarioPRJP1.node[14].wlan[0].mac 	"numDropped AC 0" 	42
scalar scenarioPRJP1.node[14].wlan[0].mac 	"numDropped AC 1" 	0
scalar scenarioPRJP1.node[14].wlan[0].mac 	"numDropped AC 2" 	0
scalar scenarioPRJP1.node[14].wlan[0].mac 	"numDropped AC 3" 	0
scalar scenarioPRJP1.node[14].wlan[0].mac 	rcvdPkFromLL:count 	58281
attr interpolationmode  none
attr source  packetReceivedFromLower
attr title  "packets received from lower layer, count"
scalar scenarioPRJP1.node[14].wlan[0].mac 	rcvdPkFromLL:sum(packetBytes) 	17448420
attr interpolationmode  none
attr source  packetReceivedFromLower
attr title  "packets received from lower layer, sum(packetBytes)"
scalar scenarioPRJP1.node[14].wlan[0].mac 	sentDownPk:count 	22996
attr interpolationmode  none
attr source  packetSentToLower
attr title  "packets sent to lower layer, count"
scalar scenarioPRJP1.node[14].wlan[0].mac 	sentDownPk:sum(packetBytes) 	6568652
attr interpolationmode  none
attr source  packetSentToLower
attr title  "packets sent to lower layer, sum(packetBytes)"
scalar scenarioPRJP1.node[14].wlan[0].mac 	rcvdPkFromHL:count 	10161
attr interpolationmode  none
attr source  packetReceivedFromUpper
attr title  "packets received from higher layer, count"
scalar scenarioPRJP1.node[14].wlan[0].mac 	rcvdPkFromHL:sum(packetBytes) 	1858768
attr interpolationmode  none
attr source  packetReceivedFromUpper
attr title  "packets received from higher layer, sum(packetBytes)"
scalar scenarioPRJP1.node[14].wlan[0].mac 	passedUpPk:count 	18730
attr interpolationmode  none
attr source  packetSentToUpper
attr title  "packets passed to higher layer, count"
scalar scenarioPRJP1.node[14].wlan[0].mac 	passedUpPk:sum(packetBytes) 	2364004
attr interpolationmode  none
attr source  packetSentToUpper
attr title  "packets passed to higher layer, sum(packetBytes)"
statistic scenarioPRJP1.node[14].wlan[0].radio 	radioChannel:histogram
field count 1
field mean 3
field stddev -nan
field sum 3
field sqrsum 9
field min 3
field max 3
attr interpolationmode  sample-hold
attr source  radioChannelChanged
attr title  "Radio channel, histogram"
bin	-INF	0
bin	2	0
bin	3	1
bin	4	0
scalar scenarioPRJP1.node[14].wlan[0].radio 	transmissionState:count 	91984
attr interpolationmode  sample-hold
attr source  transmissionStateChanged
attr title  "Radio transmission state, count"
scalar scenarioPRJP1.node[14].wlan[0].radio 	receptionState:count 	163552
attr interpolationmode  sample-hold
attr source  receptionStateChanged
attr title  "Radio reception state, count"
scalar scenarioPRJP1.node[14].wlan[0].radio 	radioMode:count 	45994
attr interpolationmode  sample-hold
attr source  radioModeChanged
attr title  "Radio mode, count"
statistic scenarioPRJP1.node[14].wlan[0].radio 	symbolErrorRate:histogram
field count 0
field mean -nan
field stddev -nan
field sum 0
field sqrsum 0
field min -nan
field max -nan
attr source  symbolErrorRate
attr title  "Symbol error rate, histogram"
bin	-INF	0
bin	-0.5	0
bin	-0.46666666666667	0
bin	-0.43333333333333	0
bin	-0.4	0
bin	-0.36666666666667	0
bin	-0.33333333333333	0
bin	-0.3	0
bin	-0.26666666666667	0
bin	-0.23333333333333	0
bin	-0.2	0
bin	-0.16666666666667	0
bin	-0.13333333333333	0
bin	-0.1	0
bin	-0.066666666666667	0
bin	-0.033333333333333	0
bin	-6.9388939039072e-18	0
bin	0.033333333333333	0
bin	0.066666666666667	0
bin	0.1	0
bin	0.13333333333333	0
bin	0.16666666666667	0
bin	0.2	0
bin	0.23333333333333	0
bin	0.26666666666667	0
bin	0.3	0
bin	0.33333333333333	0
bin	0.36666666666667	0
bin	0.4	0
bin	0.43333333333333	0
bin	0.46666666666667	0
bin	0.5	0
statistic scenarioPRJP1.node[14].wlan[0].radio 	bitErrorRate:histogram
field count 0
field mean -nan
field stddev -nan
field sum 0
field sqrsum 0
field min -nan
field max -nan
attr source  bitErrorRate
attr title  "Bit error rate, histogram"
bin	-INF	0
bin	-0.5	0
bin	-0.46666666666667	0
bin	-0.43333333333333	0
bin	-0.4	0
bin	-0.36666666666667	0
bin	-0.33333333333333	0
bin	-0.3	0
bin	-0.26666666666667	0
bin	-0.23333333333333	0
bin	-0.2	0
bin	-0.16666666666667	0
bin	-0.13333333333333	0
bin	-0.1	0
bin	-0.066666666666667	0
bin	-0.033333333333333	0
bin	-6.9388939039072e-18	0
bin	0.033333333333333	0
bin	0.066666666666667	0
bin	0.1	0
bin	0.13333333333333	0
bin	0.16666666666667	0
bin	0.2	0
bin	0.23333333333333	0
bin	0.26666666666667	0
bin	0.3	0
bin	0.33333333333333	0
bin	0.36666666666667	0
bin	0.4	0
bin	0.43333333333333	0
bin	0.46666666666667	0
bin	0.5	0
statistic scenarioPRJP1.node[14].wlan[0].radio 	packetErrorRate:histogram
field count 58281
field mean 0.076837830993468
field stddev 0.26041443702654
field sum 4478.1856281303
field sqrsum 4296.3918432621
field min 0
field max 1
attr source  packetErrorRate
attr title  "Packet error rate, histogram"
bin	-INF	0
bin	-0.5	0
bin	-0.43333333333333	0
bin	-0.36666666666667	0
bin	-0.3	0
bin	-0.23333333333333	0
bin	-0.16666666666667	0
bin	-0.1	0
bin	-0.033333333333333	53083
bin	0.033333333333333	281
bin	0.1	141
bin	0.16666666666667	82
bin	0.23333333333333	91
bin	0.3	73
bin	0.36666666666667	60
bin	0.43333333333333	49
bin	0.5	51
bin	0.56666666666667	51
bin	0.63333333333333	52
bin	0.7	48
bin	0.76666666666667	45
bin	0.83333333333333	64
bin	0.9	92
bin	0.96666666666667	4018
bin	1.0333333333333	0
bin	1.1	0
bin	1.1666666666667	0
bin	1.2333333333333	0
bin	1.3	0
bin	1.3666666666667	0
bin	1.4333333333333	0
bin	1.5	0
statistic scenarioPRJP1.node[14].wlan[0].radio 	minSNIR:histogram
field count 58281
field mean 10726.952475264
field stddev 53848.516330571
field sum 625177517.21084
field sqrsum 1.7569859231303e+14
field min 0.00012299215988207
field max 1513811.2584397
attr source  minSNIR
attr title  "Min SNIR, histogram"
bin	-INF	0
bin	-3340.4269627275	0
bin	-2895.0244189674	0
bin	-2449.6218752074	0
bin	-2004.2193314473	0
bin	-1558.8167876872	0
bin	-1113.4142439271	0
bin	-668.01170016706	0
bin	-222.60915640698	32315
bin	222.79338735309	9785
bin	668.19593111317	2436
bin	1113.5984748732	1319
bin	1559.0010186333	854
bin	2004.4035623934	691
bin	2449.8061061535	557
bin	2895.2086499136	473
bin	3340.6111936736	449
bin	3786.0137374337	380
bin	4231.4162811938	354
bin	4676.8188249539	309
bin	5122.2213687139	303
bin	5567.623912474	245
bin	6013.0264562341	260
bin	6458.4289999942	198
bin	6903.8315437543	213
bin	7349.2340875143	167
bin	7794.6366312744	176
bin	8240.0391750345	186
bin	8685.4417187946	161
bin	9130.8442625546	135
bin	9576.2468063147	145
bin	10021.649350075	6170
scalar scenarioPRJP1.node[14].lo0.lo 	droppedPkBitError:count 	0
attr interpolationmode  none
attr source  dropPkBitError
attr title  "packets dropped/bit error, count"
scalar scenarioPRJP1.node[14].lo0.lo 	droppedPkBitError:sum(packetBytes) 	0
attr interpolationmode  none
attr source  dropPkBitError
attr title  "packets dropped/bit error, sum(packetBytes)"
scalar scenarioPRJP1.node[14].lo0.lo 	rcvdPkFromHL:count 	0
attr interpolationmode  none
attr source  packetReceivedFromUpper
attr title  "packets received from higher layer, count"
scalar scenarioPRJP1.node[14].lo0.lo 	rcvdPkFromHL:sum(packetBytes) 	0
attr interpolationmode  none
attr source  packetReceivedFromUpper
attr title  "packets received from higher layer, sum(packetBytes)"
scalar scenarioPRJP1.node[14].lo0.lo 	passedUpPk:count 	0
attr interpolationmode  none
attr source  packetSentToUpper
attr title  "packets passed to higher layer, count"
scalar scenarioPRJP1.node[14].lo0.lo 	passedUpPk:sum(packetBytes) 	0
attr interpolationmode  none
attr source  packetSentToUpper
attr title  "packets passed to higher layer, sum(packetBytes)"
scalar scenarioPRJP1.node[2].app 	"Total sent" 	2607
scalar scenarioPRJP1.node[2].app 	"Total received" 	258
scalar scenarioPRJP1.node[2].app 	"Total deleted" 	92
scalar scenarioPRJP1.node[2].app 	dropPk:count 	92
attr interpolationmode  none
attr source  dropPk
attr title  "packets dropped, count"
scalar scenarioPRJP1.node[2].app 	dropPk:sum(packetBytes) 	47104
attr interpolationmode  none
attr source  dropPk
attr title  "packets dropped, sum(packetBytes)"
scalar scenarioPRJP1.node[2].app 	outOfOrderPk:count 	111
attr interpolationmode  none
attr source  outOfOrderPk
attr title  "packets received out of order, count"
scalar scenarioPRJP1.node[2].app 	outOfOrderPk:sum(packetBytes) 	56832
attr interpolationmode  none
attr source  outOfOrderPk
attr title  "packets received out of order, sum(packetBytes)"
scalar scenarioPRJP1.node[2].app 	rcvdPk:count 	258
attr interpolationmode  none
attr source  rcvdPk
attr title  "packets received, count"
scalar scenarioPRJP1.node[2].app 	rcvdPk:sum(packetBytes) 	132096
attr interpolationmode  none
attr source  rcvdPk
attr title  "packets received, sum(packetBytes)"
statistic scenarioPRJP1.node[2].app 	endToEndDelay:histogram
field count 258
field mean 1.5727228582381
field stddev 3.8003873692254
field sum 405.76249742543
field sqrsum 4349.9886028519
field min 0.000945022685
field max 18.893254598884
attr interpolationmode  none
attr source  messageAge(rcvdPk)
attr title  "delay, histogram"
attr unit  s
bin	-INF	0
bin	-9.2291371590055	0
bin	-7.9984595347801	0
bin	-6.7677819105547	0
bin	-5.5371042863293	0
bin	-4.3064266621039	0
bin	-3.0757490378785	0
bin	-1.8450714136531	0
bin	-0.6143937894277	194
bin	0.6162838347977	14
bin	1.8469614590231	12
bin	3.0776390832485	5
bin	4.3083167074739	4
bin	5.5389943316993	2
bin	6.7696719559247	7
bin	8.0003495801501	4
bin	9.2310272043755	3
bin	10.461704828601	3
bin	11.692382452826	0
bin	12.923060077052	2
bin	14.153737701277	1
bin	15.384415325502	1
bin	16.615092949728	3
bin	17.845770573953	3
bin	19.076448198179	0
bin	20.307125822404	0
bin	21.537803446629	0
bin	22.768481070855	0
bin	23.99915869508	0
bin	25.229836319306	0
bin	26.460513943531	0
bin	27.691191567756	0
scalar scenarioPRJP1.node[2].app 	sentPk:count 	2607
attr interpolationmode  none
attr source  sentPk
attr title  "packets sent, count"
scalar scenarioPRJP1.node[2].app 	sentPk:sum(packetBytes) 	1334784
attr interpolationmode  none
attr source  sentPk
attr title  "packets sent, sum(packetBytes)"
scalar scenarioPRJP1.node[2].udp 	droppedPkBadChecksum:count 	0
attr interpolationmode  none
attr title  "packets dropped (checksum error), count"
scalar scenarioPRJP1.node[2].udp 	droppedPkWrongPort:count 	0
attr interpolationmode  none
attr title  "packets dropped (wrong port), count"
scalar scenarioPRJP1.node[2].udp 	passedUpPk:count 	461
attr interpolationmode  none
attr title  "packets passed up, count"
scalar scenarioPRJP1.node[2].udp 	rcvdPk:count 	461
attr interpolationmode  none
attr source  rcvdPk
attr title  "packets received, count"
scalar scenarioPRJP1.node[2].udp 	rcvdPk:sum(packetBytes) 	239720
attr interpolationmode  none
attr source  rcvdPk
attr title  "packets received, sum(packetBytes)"
scalar scenarioPRJP1.node[2].udp 	sentPk:count 	2607
attr interpolationmode  none
attr source  sentPk
attr title  "packets sent, count"
scalar scenarioPRJP1.node[2].udp 	sentPk:sum(packetBytes) 	1355640
attr interpolationmode  none
attr source  sentPk
attr title  "packets sent, sum(packetBytes)"
scalar scenarioPRJP1.node[2].networkLayer.arp 	failedARPResolution:count 	147
attr title  "ARP failed resolutions, count"
scalar scenarioPRJP1.node[2].networkLayer.arp 	completedARPResolution:count 	1482
attr title  "ARP completed resolutions, count"
scalar scenarioPRJP1.node[2].networkLayer.arp 	initiatedARPResolution:count 	190
attr title  "ARP initiated resolutions, count"
scalar scenarioPRJP1.node[2].networkLayer.arp 	sentReply:count 	44
attr title  "ARP replies sent, count"
scalar scenarioPRJP1.node[2].networkLayer.arp 	sentReq:count 	520
attr title  "ARP request sent, count"
scalar scenarioPRJP1.node[2].mobility 	startTime 	0.1
scalar scenarioPRJP1.node[2].mobility 	totalTime 	949.9
scalar scenarioPRJP1.node[2].mobility 	stopTime 	950
scalar scenarioPRJP1.node[2].mobility 	minSpeed 	2.4756860404551e-13
scalar scenarioPRJP1.node[2].mobility 	maxSpeed 	20.21930291127
scalar scenarioPRJP1.node[2].mobility 	totalDistance 	11127.492035364
scalar scenarioPRJP1.node[2].mobility 	totalCO2Emission 	2918.4732695354
scalar scenarioPRJP1.node[2].wlan[0].mgmt 	dataQueueLen:max 	35
attr interpolationmode  sample-hold
attr title  "data queue length, max"
scalar scenarioPRJP1.node[2].wlan[0].mgmt 	dataQueueLen:timeavg 	4.4814076963891e-05
attr interpolationmode  sample-hold
attr title  "data queue length, timeavg"
scalar scenarioPRJP1.node[2].wlan[0].mgmt 	dropPkByQueue:count 	0
attr interpolationmode  none
attr source  dropPkByQueue
attr title  "packets dropped by queue, count"
scalar scenarioPRJP1.node[2].wlan[0].mgmt 	dropPkByQueue:sum(packetBytes) 	0
attr interpolationmode  none
attr source  dropPkByQueue
attr title  "packets dropped by queue, sum(packetBytes)"
scalar scenarioPRJP1.node[2].wlan[0].mac 	"number of received packets" 	5784
scalar scenarioPRJP1.node[2].wlan[0].mac 	"number of collisions" 	9675
scalar scenarioPRJP1.node[2].wlan[0].mac 	"number of internal collisions" 	0
scalar scenarioPRJP1.node[2].wlan[0].mac 	"number of retry for AC 0" 	14781
scalar scenarioPRJP1.node[2].wlan[0].mac 	"number of retry for AC 1" 	6
scalar scenarioPRJP1.node[2].wlan[0].mac 	"number of retry for AC 2" 	0
scalar scenarioPRJP1.node[2].wlan[0].mac 	"number of retry for AC 3" 	0
scalar scenarioPRJP1.node[2].wlan[0].mac 	"sent and received bits" 	12141600
scalar scenarioPRJP1.node[2].wlan[0].mac 	"sent packet within AC 0" 	2072
scalar scenarioPRJP1.node[2].wlan[0].mac 	"sent packet within AC 1" 	19
scalar scenarioPRJP1.node[2].wlan[0].mac 	"sent packet within AC 2" 	0
scalar scenarioPRJP1.node[2].wlan[0].mac 	"sent packet within AC 3" 	0
scalar scenarioPRJP1.node[2].wlan[0].mac 	"sent in TXOP " 	0
scalar scenarioPRJP1.node[2].wlan[0].mac 	"sentWithoutRetry AC 0" 	1849
scalar scenarioPRJP1.node[2].wlan[0].mac 	"sentWithoutRetry AC 1" 	14
scalar scenarioPRJP1.node[2].wlan[0].mac 	"sentWithoutRetry AC 2" 	0
scalar scenarioPRJP1.node[2].wlan[0].mac 	"sentWithoutRetry AC 3" 	0
scalar scenarioPRJP1.node[2].wlan[0].mac 	"numGivenUp AC 0" 	2406
scalar scenarioPRJP1.node[2].wlan[0].mac 	"numGivenUp AC 1" 	0
scalar scenarioPRJP1.node[2].wlan[0].mac 	"numGivenUp AC 2" 	0
scalar scenarioPRJP1.node[2].wlan[0].mac 	"numGivenUp AC 3" 	0
scalar scenarioPRJP1.node[2].wlan[0].mac 	"numDropped AC 0" 	15
scalar scenarioPRJP1.node[2].wlan[0].mac 	"numDropped AC 1" 	0
scalar scenarioPRJP1.node[2].wlan[0].mac 	"numDropped AC 2" 	0
scalar scenarioPRJP1.node[2].wlan[0].mac 	"numDropped AC 3" 	0
scalar scenarioPRJP1.node[2].wlan[0].mac 	rcvdPkFromLL:count 	91281
attr interpolationmode  none
attr source  packetReceivedFromLower
attr title  "packets received from lower layer, count"
scalar scenarioPRJP1.node[2].wlan[0].mac 	rcvdPkFromLL:sum(packetBytes) 	25394174
attr interpolationmode  none
attr source  packetReceivedFromLower
attr title  "packets received from lower layer, sum(packetBytes)"
scalar scenarioPRJP1.node[2].wlan[0].mac 	sentDownPk:count 	35010
attr interpolationmode  none
attr source  packetSentToLower
attr title  "packets sent to lower layer, count"
scalar scenarioPRJP1.node[2].wlan[0].mac 	sentDownPk:sum(packetBytes) 	9726500
attr interpolationmode  none
attr source  packetSentToLower
attr title  "packets sent to lower layer, sum(packetBytes)"
scalar scenarioPRJP1.node[2].wlan[0].mac 	rcvdPkFromHL:count 	14454
attr interpolationmode  none
attr source  packetReceivedFromUpper
attr title  "packets received from higher layer, count"
scalar scenarioPRJP1.node[2].wlan[0].mac 	rcvdPkFromHL:sum(packetBytes) 	2662372
attr interpolationmode  none
attr source  packetReceivedFromUpper
attr title  "packets received from higher layer, sum(packetBytes)"
scalar scenarioPRJP1.node[2].wlan[0].mac 	passedUpPk:count 	28029
attr interpolationmode  none
attr source  packetSentToUpper
attr title  "packets passed to higher layer, count"
scalar scenarioPRJP1.node[2].wlan[0].mac 	passedUpPk:sum(packetBytes) 	3549312
attr interpolationmode  none
attr source  packetSentToUpper
attr title  "packets passed to higher layer, sum(packetBytes)"
statistic scenarioPRJP1.node[2].wlan[0].radio 	radioChannel:histogram
field count 1
field mean 3
field stddev -nan
field sum 3
field sqrsum 9
field min 3
field max 3
attr interpolationmode  sample-hold
attr source  radioChannelChanged
attr title  "Radio channel, histogram"
bin	-INF	0
bin	2	0
bin	3	1
bin	4	0
scalar scenarioPRJP1.node[2].wlan[0].radio 	transmissionState:count 	140040
attr interpolationmode  sample-hold
attr source  transmissionStateChanged
attr title  "Radio transmission state, count"
scalar scenarioPRJP1.node[2].wlan[0].radio 	receptionState:count 	254466
attr interpolationmode  sample-hold
attr source  receptionStateChanged
attr title  "Radio reception state, count"
scalar scenarioPRJP1.node[2].wlan[0].radio 	radioMode:count 	70022
attr interpolationmode  sample-hold
attr source  radioModeChanged
attr title  "Radio mode, count"
statistic scenarioPRJP1.node[2].wlan[0].radio 	symbolErrorRate:histogram
field count 0
field mean -nan
field stddev -nan
field sum 0
field sqrsum 0
field min -nan
field max -nan
attr source  symbolErrorRate
attr title  "Symbol error rate, histogram"
bin	-INF	0
bin	-0.5	0
bin	-0.46666666666667	0
bin	-0.43333333333333	0
bin	-0.4	0
bin	-0.36666666666667	0
bin	-0.33333333333333	0
bin	-0.3	0
bin	-0.26666666666667	0
bin	-0.23333333333333	0
bin	-0.2	0
bin	-0.16666666666667	0
bin	-0.13333333333333	0
bin	-0.1	0
bin	-0.066666666666667	0
bin	-0.033333333333333	0
bin	-6.9388939039072e-18	0
bin	0.033333333333333	0
bin	0.066666666666667	0
bin	0.1	0
bin	0.13333333333333	0
bin	0.16666666666667	0
bin	0.2	0
bin	0.23333333333333	0
bin	0.26666666666667	0
bin	0.3	0
bin	0.33333333333333	0
bin	0.36666666666667	0
bin	0.4	0
bin	0.43333333333333	0
bin	0.46666666666667	0
bin	0.5	0
statistic scenarioPRJP1.node[2].wlan[0].radio 	bitErrorRate:histogram
field count 0
field mean -nan
field stddev -nan
field sum 0
field sqrsum 0
field min -nan
field max -nan
attr source  bitErrorRate
attr title  "Bit error rate, histogram"
bin	-INF	0
bin	-0.5	0
bin	-0.46666666666667	0
bin	-0.43333333333333	0
bin	-0.4	0
bin	-0.36666666666667	0
bin	-0.33333333333333	0
bin	-0.3	0
bin	-0.26666666666667	0
bin	-0.23333333333333	0
bin	-0.2	0
bin	-0.16666666666667	0
bin	-0.13333333333333	0
bin	-0.1	0
bin	-0.066666666666667	0
bin	-0.033333333333333	0
bin	-6.9388939039072e-18	0
bin	0.033333333333333	0
bin	0.066666666666667	0
bin	0.1	0
bin	0.13333333333333	0
bin	0.16666666666667	0
bin	0.2	0
bin	0.23333333333333	0
bin	0.26666666666667	0
bin	0.3	0
bin	0.33333333333333	0
bin	0.36666666666667	0
bin	0.4	0
bin	0.43333333333333	0
bin	0.46666666666667	0
bin	0.5	0
statistic scenarioPRJP1.node[2].wlan[0].radio 	packetErrorRate:histogram
field count 91281
field mean 0.099424486690251
field stddev 0.29302004578047
field sum 9075.5665695728
field sqrsum 8739.7025546836
field min 0
field max 1
attr source  packetErrorRate
attr title  "Packet error rate, histogram"
bin	-INF	0
bin	-0.5	0
bin	-0.43333333333333	0
bin	-0.36666666666667	0
bin	-0.3	0
bin	-0.23333333333333	0
bin	-0.16666666666667	0
bin	-0.1	0
bin	-0.033333333333333	80825
bin	0.033333333333333	574
bin	0.1	281
bin	0.16666666666667	159
bin	0.23333333333333	149
bin	0.3	113
bin	0.36666666666667	110
bin	0.43333333333333	88
bin	0.5	103
bin	0.56666666666667	73
bin	0.63333333333333	93
bin	0.7	79
bin	0.76666666666667	115
bin	0.83333333333333	143
bin	0.9	190
bin	0.96666666666667	8186
bin	1.0333333333333	0
bin	1.1	0
bin	1.1666666666667	0
bin	1.2333333333333	0
bin	1.3	0
bin	1.3666666666667	0
bin	1.4333333333333	0
bin	1.5	0
statistic scenarioPRJP1.node[2].wlan[0].radio 	minSNIR:histogram
field count 91281
field mean 8101.8555332532
field stddev 49085.934687656
field sum 739545474.93088
field sqrsum 2.2592436827236e+14
field min 6.3231686975626e-05
field max 3290957.3360275
attr source  minSNIR
attr title  "Min SNIR, histogram"
bin	-INF	0
bin	-84705.8143443	0
bin	-73411.705389441	0
bin	-62117.596434583	0
bin	-50823.487479725	0
bin	-39529.378524867	0
bin	-28235.269570008	0
bin	-16941.16061515	0
bin	-5647.0516602918	82619
bin	5647.0572945665	3390
bin	16941.166249425	1146
bin	28235.275204283	648
bin	39529.384159141	409
bin	50823.493114	333
bin	62117.602068858	243
bin	73411.711023716	230
bin	84705.819978574	174
bin	95999.928933433	164
bin	107294.03788829	133
bin	118588.14684315	137
bin	129882.25579801	130
bin	141176.36475287	116
bin	152470.47370772	101
bin	163764.58266258	96
bin	175058.69161744	80
bin	186352.8005723	84
bin	197646.90952716	62
bin	208941.01848202	70
bin	220235.12743687	66
bin	231529.23639173	48
bin	242823.34534659	60
bin	254117.45430145	742
scalar scenarioPRJP1.node[2].lo0.lo 	droppedPkBitError:count 	0
attr interpolationmode  none
attr source  dropPkBitError
attr title  "packets dropped/bit error, count"
scalar scenarioPRJP1.node[2].lo0.lo 	droppedPkBitError:sum(packetBytes) 	0
attr interpolationmode  none
attr source  dropPkBitError
attr title  "packets dropped/bit error, sum(packetBytes)"
scalar scenarioPRJP1.node[2].lo0.lo 	rcvdPkFromHL:count 	1
attr interpolationmode  none
attr source  packetReceivedFromUpper
attr title  "packets received from higher layer, count"
scalar scenarioPRJP1.node[2].lo0.lo 	rcvdPkFromHL:sum(packetBytes) 	56
attr interpolationmode  none
attr source  packetReceivedFromUpper
attr title  "packets received from higher layer, sum(packetBytes)"
scalar scenarioPRJP1.node[2].lo0.lo 	passedUpPk:count 	1
attr interpolationmode  none
attr source  packetSentToUpper
attr title  "packets passed to higher layer, count"
scalar scenarioPRJP1.node[2].lo0.lo 	passedUpPk:sum(packetBytes) 	56
attr interpolationmode  none
attr source  packetSentToUpper
attr title  "packets passed to higher layer, sum(packetBytes)"
scalar scenarioPRJP1.node[15].app 	"Total sent" 	2615
scalar scenarioPRJP1.node[15].app 	"Total received" 	212
scalar scenarioPRJP1.node[15].app 	"Total deleted" 	149
scalar scenarioPRJP1.node[15].app 	dropPk:count 	149
attr interpolationmode  none
attr source  dropPk
attr title  "packets dropped, count"
scalar scenarioPRJP1.node[15].app 	dropPk:sum(packetBytes) 	76288
attr interpolationmode  none
attr source  dropPk
attr title  "packets dropped, sum(packetBytes)"
scalar scenarioPRJP1.node[15].app 	outOfOrderPk:count 	111
attr interpolationmode  none
attr source  outOfOrderPk
attr title  "packets received out of order, count"
scalar scenarioPRJP1.node[15].app 	outOfOrderPk:sum(packetBytes) 	56832
attr interpolationmode  none
attr source  outOfOrderPk
attr title  "packets received out of order, sum(packetBytes)"
scalar scenarioPRJP1.node[15].app 	rcvdPk:count 	212
attr interpolationmode  none
attr source  rcvdPk
attr title  "packets received, count"
scalar scenarioPRJP1.node[15].app 	rcvdPk:sum(packetBytes) 	108544
attr interpolationmode  none
attr source  rcvdPk
attr title  "packets received, sum(packetBytes)"
statistic scenarioPRJP1.node[15].app 	endToEndDelay:histogram
field count 212
field mean 2.6266044327064
field stddev 4.9776850971892
field sum 556.84013973376
field sqrsum 6690.619402884
field min 0.000945501682
field max 19.86413401626
attr interpolationmode  none
attr source  messageAge(rcvdPk)
attr title  "delay, histogram"
attr unit  s
bin	-INF	0
bin	-9.359938961285	0
bin	-8.1118209457203	0
bin	-6.8637029301557	0
bin	-5.615584914591	0
bin	-4.3674668990263	0
bin	-3.1193488834617	0
bin	-1.871230867897	0
bin	-0.62311285233234	140
bin	0.62500516323233	14
bin	1.873123178797	6
bin	3.1212411943617	11
bin	4.3693592099263	1
bin	5.617477225491	6
bin	6.8655952410557	3
bin	8.1137132566203	5
bin	9.361831272185	6
bin	10.60994928775	2
bin	11.858067303314	3
bin	13.106185318879	1
bin	14.354303334444	2
bin	15.602421350008	2
bin	16.850539365573	6
bin	18.098657381138	3
bin	19.346775396702	1
bin	20.594893412267	0
bin	21.843011427832	0
bin	23.091129443396	0
bin	24.339247458961	0
bin	25.587365474526	0
bin	26.83548349009	0
bin	28.083601505655	0
scalar scenarioPRJP1.node[15].app 	sentPk:count 	2615
attr interpolationmode  none
attr source  sentPk
attr title  "packets sent, count"
scalar scenarioPRJP1.node[15].app 	sentPk:sum(packetBytes) 	1338880
attr interpolationmode  none
attr source  sentPk
attr title  "packets sent, sum(packetBytes)"
scalar scenarioPRJP1.node[15].udp 	droppedPkBadChecksum:count 	0
attr interpolationmode  none
attr title  "packets dropped (checksum error), count"
scalar scenarioPRJP1.node[15].udp 	droppedPkWrongPort:count 	0
attr interpolationmode  none
attr title  "packets dropped (wrong port), count"
scalar scenarioPRJP1.node[15].udp 	passedUpPk:count 	472
attr interpolationmode  none
attr title  "packets passed up, count"
scalar scenarioPRJP1.node[15].udp 	rcvdPk:count 	472
attr interpolationmode  none
attr source  rcvdPk
attr title  "packets received, count"
scalar scenarioPRJP1.node[15].udp 	rcvdPk:sum(packetBytes) 	245440
attr interpolationmode  none
attr source  rcvdPk
attr title  "packets received, sum(packetBytes)"
scalar scenarioPRJP1.node[15].udp 	sentPk:count 	2615
attr interpolationmode  none
attr source  sentPk
attr title  "packets sent, count"
scalar scenarioPRJP1.node[15].udp 	sentPk:sum(packetBytes) 	1359800
attr interpolationmode  none
attr source  sentPk
attr title  "packets sent, sum(packetBytes)"
scalar scenarioPRJP1.node[15].networkLayer.arp 	failedARPResolution:count 	156
attr title  "ARP failed resolutions, count"
scalar scenarioPRJP1.node[15].networkLayer.arp 	completedARPResolution:count 	1162
attr title  "ARP completed resolutions, count"
scalar scenarioPRJP1.node[15].networkLayer.arp 	initiatedARPResolution:count 	190
attr title  "ARP initiated resolutions, count"
scalar scenarioPRJP1.node[15].networkLayer.arp 	sentReply:count 	25
attr title  "ARP replies sent, count"
scalar scenarioPRJP1.node[15].networkLayer.arp 	sentReq:count 	531
attr title  "ARP request sent, count"
scalar scenarioPRJP1.node[15].mobility 	startTime 	2.5
scalar scenarioPRJP1.node[15].mobility 	totalTime 	947.5
scalar scenarioPRJP1.node[15].mobility 	stopTime 	950
scalar scenarioPRJP1.node[15].mobility 	minSpeed 	2.4757073588705e-13
scalar scenarioPRJP1.node[15].mobility 	maxSpeed 	17.890916631602
scalar scenarioPRJP1.node[15].mobility 	totalDistance 	8867.312126323
scalar scenarioPRJP1.node[15].mobility 	totalCO2Emission 	2514.6637625932
scalar scenarioPRJP1.node[15].wlan[0].mgmt 	dataQueueLen:max 	67
attr interpolationmode  sample-hold
attr title  "data queue length, max"
scalar scenarioPRJP1.node[15].wlan[0].mgmt 	dataQueueLen:timeavg 	0.0049498323028686
attr interpolationmode  sample-hold
attr title  "data queue length, timeavg"
scalar scenarioPRJP1.node[15].wlan[0].mgmt 	dropPkByQueue:count 	0
attr interpolationmode  none
attr source  dropPkByQueue
attr title  "packets dropped by queue, count"
scalar scenarioPRJP1.node[15].wlan[0].mgmt 	dropPkByQueue:sum(packetBytes) 	0
attr interpolationmode  none
attr source  dropPkByQueue
attr title  "packets dropped by queue, sum(packetBytes)"
scalar scenarioPRJP1.node[15].wlan[0].mac 	"number of received packets" 	3110
scalar scenarioPRJP1.node[15].wlan[0].mac 	"number of collisions" 	6792
scalar scenarioPRJP1.node[15].wlan[0].mac 	"number of internal collisions" 	0
scalar scenarioPRJP1.node[15].wlan[0].mac 	"number of retry for AC 0" 	13362
scalar scenarioPRJP1.node[15].wlan[0].mac 	"number of retry for AC 1" 	0
scalar scenarioPRJP1.node[15].wlan[0].mac 	"number of retry for AC 2" 	0
scalar scenarioPRJP1.node[15].wlan[0].mac 	"number of retry for AC 3" 	0
scalar scenarioPRJP1.node[15].wlan[0].mac 	"sent and received bits" 	8420992
scalar scenarioPRJP1.node[15].wlan[0].mac 	"sent packet within AC 0" 	482
scalar scenarioPRJP1.node[15].wlan[0].mac 	"sent packet within AC 1" 	0
scalar scenarioPRJP1.node[15].wlan[0].mac 	"sent packet within AC 2" 	0
scalar scenarioPRJP1.node[15].wlan[0].mac 	"sent packet within AC 3" 	0
scalar scenarioPRJP1.node[15].wlan[0].mac 	"sent in TXOP " 	0
scalar scenarioPRJP1.node[15].wlan[0].mac 	"sentWithoutRetry AC 0" 	431
scalar scenarioPRJP1.node[15].wlan[0].mac 	"sentWithoutRetry AC 1" 	0
scalar scenarioPRJP1.node[15].wlan[0].mac 	"sentWithoutRetry AC 2" 	0
scalar scenarioPRJP1.node[15].wlan[0].mac 	"sentWithoutRetry AC 3" 	0
scalar scenarioPRJP1.node[15].wlan[0].mac 	"numGivenUp AC 0" 	2215
scalar scenarioPRJP1.node[15].wlan[0].mac 	"numGivenUp AC 1" 	0
scalar scenarioPRJP1.node[15].wlan[0].mac 	"numGivenUp AC 2" 	0
scalar scenarioPRJP1.node[15].wlan[0].mac 	"numGivenUp AC 3" 	0
scalar scenarioPRJP1.node[15].wlan[0].mac 	"numDropped AC 0" 	28
scalar scenarioPRJP1.node[15].wlan[0].mac 	"numDropped AC 1" 	0
scalar scenarioPRJP1.node[15].wlan[0].mac 	"numDropped AC 2" 	0
scalar scenarioPRJP1.node[15].wlan[0].mac 	"numDropped AC 3" 	0
scalar scenarioPRJP1.node[15].wlan[0].mac 	rcvdPkFromLL:count 	63385
attr interpolationmode  none
attr source  packetReceivedFromLower
attr title  "packets received from lower layer, count"
scalar scenarioPRJP1.node[15].wlan[0].mac 	rcvdPkFromLL:sum(packetBytes) 	17075656
attr interpolationmode  none
attr source  packetReceivedFromLower
attr title  "packets received from lower layer, sum(packetBytes)"
scalar scenarioPRJP1.node[15].wlan[0].mac 	sentDownPk:count 	28323
attr interpolationmode  none
attr source  packetSentToLower
attr title  "packets sent to lower layer, count"
scalar scenarioPRJP1.node[15].wlan[0].mac 	sentDownPk:sum(packetBytes) 	8826440
attr interpolationmode  none
attr source  packetSentToLower
attr title  "packets sent to lower layer, sum(packetBytes)"
scalar scenarioPRJP1.node[15].wlan[0].mac 	rcvdPkFromHL:count 	11879
attr interpolationmode  none
attr source  packetReceivedFromUpper
attr title  "packets received from higher layer, count"
scalar scenarioPRJP1.node[15].wlan[0].mac 	rcvdPkFromHL:sum(packetBytes) 	2163660
attr interpolationmode  none
[...]
scalar scenarioPRJP1.node[12].wlan[0].mac 	passedUpPk:sum(packetBytes) 	3120920
attr interpolationmode  none
attr source  packetSentToUpper
attr title  "packets passed to higher layer, sum(packetBytes)"
statistic scenarioPRJP1.node[12].wlan[0].radio 	radioChannel:histogram
field count 1
field mean 3
field stddev -nan
field sum 3
field sqrsum 9
field min 3
field max 3
attr interpolationmode  sample-hold
attr source  radioChannelChanged
attr title  "Radio channel, histogram"
bin	-INF	0
bin	2	0
bin	3	1
bin	4	0
scalar scenarioPRJP1.node[12].wlan[0].radio 	transmissionState:count 	109824
attr interpolationmode  sample-hold
attr source  transmissionStateChanged
attr title  "Radio transmission state, count"
scalar scenarioPRJP1.node[12].wlan[0].radio 	receptionState:count 	230229
attr interpolationmode  sample-hold
attr source  receptionStateChanged
attr title  "Radio reception state, count"
scalar scenarioPRJP1.node[12].wlan[0].radio 	radioMode:count 	54914
attr interpolationmode  sample-hold
attr source  radioModeChanged
attr title  "Radio mode, count"
statistic scenarioPRJP1.node[12].wlan[0].radio 	symbolErrorRate:histogram
field count 0
field mean -nan
field stddev -nan
field sum 0
field sqrsum 0
field min -nan
field max -nan
attr source  symbolErrorRate
attr title  "Symbol error rate, histogram"
bin	-INF	0
bin	-0.5	0
bin	-0.46666666666667	0
bin	-0.43333333333333	0
bin	-0.4	0
bin	-0.36666666666667	0
bin	-0.33333333333333	0
bin	-0.3	0
bin	-0.26666666666667	0
bin	-0.23333333333333	0
bin	-0.2	0
bin	-0.16666666666667	0
bin	-0.13333333333333	0
bin	-0.1	0
bin	-0.066666666666667	0
bin	-0.033333333333333	0
bin	-6.9388939039072e-18	0
bin	0.033333333333333	0
bin	0.066666666666667	0
bin	0.1	0
bin	0.13333333333333	0
bin	0.16666666666667	0
bin	0.2	0
bin	0.23333333333333	0
bin	0.26666666666667	0
bin	0.3	0
bin	0.33333333333333	0
bin	0.36666666666667	0
bin	0.4	0
bin	0.43333333333333	0
bin	0.46666666666667	0
bin	0.5	0
statistic scenarioPRJP1.node[12].wlan[0].radio 	bitErrorRate:histogram
field count 0
field mean -nan
field stddev -nan
field sum 0
field sqrsum 0
field min -nan
field max -nan
attr source  bitErrorRate
attr title  "Bit error rate, histogram"
bin	-INF	0
bin	-0.5	0
bin	-0.46666666666667	0
bin	-0.43333333333333	0
bin	-0.4	0
bin	-0.36666666666667	0
bin	-0.33333333333333	0
bin	-0.3	0
bin	-0.26666666666667	0
bin	-0.23333333333333	0
bin	-0.2	0
bin	-0.16666666666667	0
bin	-0.13333333333333	0
bin	-0.1	0
bin	-0.066666666666667	0
bin	-0.033333333333333	0
bin	-6.9388939039072e-18	0
bin	0.033333333333333	0
bin	0.066666666666667	0
bin	0.1	0
bin	0.13333333333333	0
bin	0.16666666666667	0
bin	0.2	0
bin	0.23333333333333	0
bin	0.26666666666667	0
bin	0.3	0
bin	0.33333333333333	0
bin	0.36666666666667	0
bin	0.4	0
bin	0.43333333333333	0
bin	0.46666666666667	0
bin	0.5	0
statistic scenarioPRJP1.node[12].wlan[0].radio 	packetErrorRate:histogram
field count 86748
field mean 0.097348652399192
field stddev 0.2905458936924
field sum 8444.8008983251
field sqrsum 8145.0042291087
field min 0
field max 1
attr source  packetErrorRate
attr title  "Packet error rate, histogram"
bin	-INF	0
bin	-0.5	0
bin	-0.43333333333333	0
bin	-0.36666666666667	0
bin	-0.3	0
bin	-0.23333333333333	0
bin	-0.16666666666667	0
bin	-0.1	0
bin	-0.033333333333333	77081
bin	0.033333333333333	492
bin	0.1	224
bin	0.16666666666667	181
bin	0.23333333333333	120
bin	0.3	122
bin	0.36666666666667	94
bin	0.43333333333333	102
bin	0.5	71
bin	0.56666666666667	85
bin	0.63333333333333	79
bin	0.7	61
bin	0.76666666666667	79
bin	0.83333333333333	113
bin	0.9	159
bin	0.96666666666667	7685
bin	1.0333333333333	0
bin	1.1	0
bin	1.1666666666667	0
bin	1.2333333333333	0
bin	1.3	0
bin	1.3666666666667	0
bin	1.4333333333333	0
bin	1.5	0
statistic scenarioPRJP1.node[12].wlan[0].radio 	minSNIR:histogram
field count 86748
field mean 7791.8704715924
field stddev 45509.707860388
field sum 675929179.66969
field sqrsum 1.8493137116784e+14
field min 0.00021642830478587
field max 2215516.1795676
attr source  minSNIR
attr title  "Min SNIR, histogram"
bin	-INF	0
bin	-379738.13699329	0
bin	-329106.28423408	0
bin	-278474.43147488	0
bin	-227842.57871568	0
bin	-177210.72595647	0
bin	-126578.87319727	0
bin	-75947.020438062	0
bin	-25315.167678857	82568
bin	25316.685080348	2111
bin	75948.537839552	701
bin	126580.39059876	450
bin	177212.24335796	258
bin	227844.09611717	187
bin	278475.94887637	125
bin	329107.80163558	84
bin	379739.65439478	61
bin	430371.50715398	40
bin	481003.35991319	29
bin	531635.21267239	26
bin	582267.0654316	23
bin	632898.9181908	16
bin	683530.77095001	12
bin	734162.62370921	9
bin	784794.47646842	6
bin	835426.32922762	8
bin	886058.18198683	15
bin	936690.03474603	1
bin	987321.88750524	1
bin	1037953.7402644	2
bin	1088585.5930236	2
bin	1139217.4457828	13
scalar scenarioPRJP1.node[12].lo0.lo 	droppedPkBitError:count 	0
attr interpolationmode  none
attr source  dropPkBitError
attr title  "packets dropped/bit error, count"
scalar scenarioPRJP1.node[12].lo0.lo 	droppedPkBitError:sum(packetBytes) 	0
attr interpolationmode  none
attr source  dropPkBitError
attr title  "packets dropped/bit error, sum(packetBytes)"
scalar scenarioPRJP1.node[12].lo0.lo 	rcvdPkFromHL:count 	0
attr interpolationmode  none
attr source  packetReceivedFromUpper
attr title  "packets received from higher layer, count"
scalar scenarioPRJP1.node[12].lo0.lo 	rcvdPkFromHL:sum(packetBytes) 	0
attr interpolationmode  none
attr source  packetReceivedFromUpper
attr title  "packets received from higher layer, sum(packetBytes)"
scalar scenarioPRJP1.node[12].lo0.lo 	passedUpPk:count 	0
attr interpolationmode  none
attr source  packetSentToUpper
attr title  "packets passed to higher layer, count"
scalar scenarioPRJP1.node[12].lo0.lo 	passedUpPk:sum(packetBytes) 	0
attr interpolationmode  none
attr source  packetSentToUpper
attr title  "packets passed to higher layer, sum(packetBytes)"
scalar scenarioPRJP1.node[22].app 	"Total sent" 	2605
scalar scenarioPRJP1.node[22].app 	"Total received" 	198
scalar scenarioPRJP1.node[22].app 	"Total deleted" 	138
scalar scenarioPRJP1.node[22].app 	dropPk:count 	138
attr interpolationmode  none
attr source  dropPk
attr title  "packets dropped, count"
scalar scenarioPRJP1.node[22].app 	dropPk:sum(packetBytes) 	70656
attr interpolationmode  none
attr source  dropPk
attr title  "packets dropped, sum(packetBytes)"
scalar scenarioPRJP1.node[22].app 	outOfOrderPk:count 	33
attr interpolationmode  none
attr source  outOfOrderPk
attr title  "packets received out of order, count"
scalar scenarioPRJP1.node[22].app 	outOfOrderPk:sum(packetBytes) 	16896
attr interpolationmode  none
attr source  outOfOrderPk
attr title  "packets received out of order, sum(packetBytes)"
scalar scenarioPRJP1.node[22].app 	rcvdPk:count 	198
attr interpolationmode  none
attr source  rcvdPk
attr title  "packets received, count"
scalar scenarioPRJP1.node[22].app 	rcvdPk:sum(packetBytes) 	101376
attr interpolationmode  none
attr source  rcvdPk
attr title  "packets received, sum(packetBytes)"
statistic scenarioPRJP1.node[22].app 	endToEndDelay:histogram
field count 198
field mean 2.5448497448192
field stddev 4.9871261776589
field sum 503.88024947421
field sqrsum 6181.9707441363
field min 0.000945038886
field max 19.993426864194
attr interpolationmode  none
attr source  messageAge(rcvdPk)
attr title  "delay, histogram"
attr unit  s
bin	-INF	0
bin	-9.995295873768	0
bin	-8.6624637520808	0
bin	-7.3296316303936	0
bin	-5.9967995087064	0
bin	-4.6639673870192	0
bin	-3.331135265332	0
bin	-1.9983031436448	0
bin	-0.6654710219576	138
bin	0.6673610997296	11
bin	2.0001932214168	6
bin	3.333025343104	3
bin	4.6658574647912	6
bin	5.9986895864784	4
bin	7.3315217081656	3
bin	8.6643538298528	1
bin	9.99718595154	3
bin	11.330018073227	4
bin	12.662850194914	9
bin	13.995682316602	2
bin	15.328514438289	1
bin	16.661346559976	4
bin	17.994178681663	2
bin	19.32701080335	1
bin	20.659842925038	0
bin	21.992675046725	0
bin	23.325507168412	0
bin	24.658339290099	0
bin	25.991171411786	0
bin	27.324003533474	0
bin	28.656835655161	0
bin	29.989667776848	0
scalar scenarioPRJP1.node[22].app 	sentPk:count 	2605
attr interpolationmode  none
attr source  sentPk
attr title  "packets sent, count"
scalar scenarioPRJP1.node[22].app 	sentPk:sum(packetBytes) 	1333760
attr interpolationmode  none
attr source  sentPk
attr title  "packets sent, sum(packetBytes)"
scalar scenarioPRJP1.node[22].udp 	droppedPkBadChecksum:count 	0
attr interpolationmode  none
attr title  "packets dropped (checksum error), count"
scalar scenarioPRJP1.node[22].udp 	droppedPkWrongPort:count 	0
attr interpolationmode  none
attr title  "packets dropped (wrong port), count"
scalar scenarioPRJP1.node[22].udp 	passedUpPk:count 	369
attr interpolationmode  none
attr title  "packets passed up, count"
scalar scenarioPRJP1.node[22].udp 	rcvdPk:count 	369
attr interpolationmode  none
attr source  rcvdPk
attr title  "packets received, count"
scalar scenarioPRJP1.node[22].udp 	rcvdPk:sum(packetBytes) 	191880
attr interpolationmode  none
attr source  rcvdPk
attr title  "packets received, sum(packetBytes)"
scalar scenarioPRJP1.node[22].udp 	sentPk:count 	2605
attr interpolationmode  none
attr source  sentPk
attr title  "packets sent, count"
scalar scenarioPRJP1.node[22].udp 	sentPk:sum(packetBytes) 	1354600
attr interpolationmode  none
attr source  sentPk
attr title  "packets sent, sum(packetBytes)"
scalar scenarioPRJP1.node[22].networkLayer.arp 	failedARPResolution:count 	129
attr title  "ARP failed resolutions, count"
scalar scenarioPRJP1.node[22].networkLayer.arp 	completedARPResolution:count 	788
attr title  "ARP completed resolutions, count"
scalar scenarioPRJP1.node[22].networkLayer.arp 	initiatedARPResolution:count 	165
attr title  "ARP initiated resolutions, count"
scalar scenarioPRJP1.node[22].networkLayer.arp 	sentReply:count 	30
attr title  "ARP replies sent, count"
scalar scenarioPRJP1.node[22].networkLayer.arp 	sentReq:count 	458
attr title  "ARP request sent, count"
scalar scenarioPRJP1.node[22].mobility 	startTime 	2.5
scalar scenarioPRJP1.node[22].mobility 	totalTime 	947.5
scalar scenarioPRJP1.node[22].mobility 	stopTime 	950
scalar scenarioPRJP1.node[22].mobility 	minSpeed 	2.4757136141806e-13
scalar scenarioPRJP1.node[22].mobility 	maxSpeed 	17.118701478707
scalar scenarioPRJP1.node[22].mobility 	totalDistance 	10726.084661762
scalar scenarioPRJP1.node[22].mobility 	totalCO2Emission 	2634.7173425663
scalar scenarioPRJP1.node[22].wlan[0].mgmt 	dataQueueLen:max 	45
attr interpolationmode  sample-hold
attr title  "data queue length, max"
scalar scenarioPRJP1.node[22].wlan[0].mgmt 	dataQueueLen:timeavg 	0
attr interpolationmode  sample-hold
attr title  "data queue length, timeavg"
scalar scenarioPRJP1.node[22].wlan[0].mgmt 	dropPkByQueue:count 	0
attr interpolationmode  none
attr source  dropPkByQueue
attr title  "packets dropped by queue, count"
scalar scenarioPRJP1.node[22].wlan[0].mgmt 	dropPkByQueue:sum(packetBytes) 	0
attr interpolationmode  none
attr source  dropPkByQueue
attr title  "packets dropped by queue, sum(packetBytes)"
scalar scenarioPRJP1.node[22].wlan[0].mac 	"number of received packets" 	2133
scalar scenarioPRJP1.node[22].wlan[0].mac 	"number of collisions" 	4153
scalar scenarioPRJP1.node[22].wlan[0].mac 	"number of internal collisions" 	0
scalar scenarioPRJP1.node[22].wlan[0].mac 	"number of retry for AC 0" 	8887
scalar scenarioPRJP1.node[22].wlan[0].mac 	"number of retry for AC 1" 	0
scalar scenarioPRJP1.node[22].wlan[0].mac 	"number of retry for AC 2" 	0
scalar scenarioPRJP1.node[22].wlan[0].mac 	"number of retry for AC 3" 	0
scalar scenarioPRJP1.node[22].wlan[0].mac 	"sent and received bits" 	7362464
scalar scenarioPRJP1.node[22].wlan[0].mac 	"sent packet within AC 0" 	517
scalar scenarioPRJP1.node[22].wlan[0].mac 	"sent packet within AC 1" 	0
scalar scenarioPRJP1.node[22].wlan[0].mac 	"sent packet within AC 2" 	0
scalar scenarioPRJP1.node[22].wlan[0].mac 	"sent packet within AC 3" 	0
scalar scenarioPRJP1.node[22].wlan[0].mac 	"sent in TXOP " 	0
scalar scenarioPRJP1.node[22].wlan[0].mac 	"sentWithoutRetry AC 0" 	444
scalar scenarioPRJP1.node[22].wlan[0].mac 	"sentWithoutRetry AC 1" 	0
scalar scenarioPRJP1.node[22].wlan[0].mac 	"sentWithoutRetry AC 2" 	0
scalar scenarioPRJP1.node[22].wlan[0].mac 	"sentWithoutRetry AC 3" 	0
scalar scenarioPRJP1.node[22].wlan[0].mac 	"numGivenUp AC 0" 	1462
scalar scenarioPRJP1.node[22].wlan[0].mac 	"numGivenUp AC 1" 	0
scalar scenarioPRJP1.node[22].wlan[0].mac 	"numGivenUp AC 2" 	0
scalar scenarioPRJP1.node[22].wlan[0].mac 	"numGivenUp AC 3" 	0
scalar scenarioPRJP1.node[22].wlan[0].mac 	"numDropped AC 0" 	0
scalar scenarioPRJP1.node[22].wlan[0].mac 	"numDropped AC 1" 	0
scalar scenarioPRJP1.node[22].wlan[0].mac 	"numDropped AC 2" 	0
scalar scenarioPRJP1.node[22].wlan[0].mac 	"numDropped AC 3" 	0
scalar scenarioPRJP1.node[22].wlan[0].mac 	rcvdPkFromLL:count 	44191
attr interpolationmode  none
attr source  packetReceivedFromLower
attr title  "packets received from lower layer, count"
scalar scenarioPRJP1.node[22].wlan[0].mac 	rcvdPkFromLL:sum(packetBytes) 	12010694
attr interpolationmode  none
attr source  packetReceivedFromLower
attr title  "packets received from lower layer, sum(packetBytes)"
scalar scenarioPRJP1.node[22].wlan[0].mac 	sentDownPk:count 	20621
attr interpolationmode  none
attr source  packetSentToLower
attr title  "packets sent to lower layer, count"
scalar scenarioPRJP1.node[22].wlan[0].mac 	sentDownPk:sum(packetBytes) 	6095082
attr interpolationmode  none
attr source  packetSentToLower
attr title  "packets sent to lower layer, sum(packetBytes)"
scalar scenarioPRJP1.node[22].wlan[0].mac 	rcvdPkFromHL:count 	9601
attr interpolationmode  none
attr source  packetReceivedFromUpper
attr title  "packets received from higher layer, count"
scalar scenarioPRJP1.node[22].wlan[0].mac 	rcvdPkFromHL:sum(packetBytes) 	1646260
attr interpolationmode  none
attr source  packetReceivedFromUpper
attr title  "packets received from higher layer, sum(packetBytes)"
scalar scenarioPRJP1.node[22].wlan[0].mac 	passedUpPk:count 	15841
attr interpolationmode  none
attr source  packetSentToUpper
attr title  "packets passed to higher layer, count"
scalar scenarioPRJP1.node[22].wlan[0].mac 	passedUpPk:sum(packetBytes) 	1857744
attr interpolationmode  none
attr source  packetSentToUpper
attr title  "packets passed to higher layer, sum(packetBytes)"
statistic scenarioPRJP1.node[22].wlan[0].radio 	radioChannel:histogram
field count 1
field mean 3
field stddev -nan
field sum 3
field sqrsum 9
field min 3
field max 3
attr interpolationmode  sample-hold
attr source  radioChannelChanged
attr title  "Radio channel, histogram"
bin	-INF	0
bin	2	0
bin	3	1
bin	4	0
scalar scenarioPRJP1.node[22].wlan[0].radio 	transmissionState:count 	82484
attr interpolationmode  sample-hold
attr source  transmissionStateChanged
attr title  "Radio transmission state, count"
scalar scenarioPRJP1.node[22].wlan[0].radio 	receptionState:count 	130226
attr interpolationmode  sample-hold
attr source  receptionStateChanged
attr title  "Radio reception state, count"
scalar scenarioPRJP1.node[22].wlan[0].radio 	radioMode:count 	41244
attr interpolationmode  sample-hold
attr source  radioModeChanged
attr title  "Radio mode, count"
statistic scenarioPRJP1.node[22].wlan[0].radio 	symbolErrorRate:histogram
field count 0
field mean -nan
field stddev -nan
field sum 0
field sqrsum 0
field min -nan
field max -nan
attr source  symbolErrorRate
attr title  "Symbol error rate, histogram"
bin	-INF	0
bin	-0.5	0
bin	-0.46666666666667	0
bin	-0.43333333333333	0
bin	-0.4	0
bin	-0.36666666666667	0
bin	-0.33333333333333	0
bin	-0.3	0
bin	-0.26666666666667	0
bin	-0.23333333333333	0
bin	-0.2	0
bin	-0.16666666666667	0
bin	-0.13333333333333	0
bin	-0.1	0
bin	-0.066666666666667	0
bin	-0.033333333333333	0
bin	-6.9388939039072e-18	0
bin	0.033333333333333	0
bin	0.066666666666667	0
bin	0.1	0
bin	0.13333333333333	0
bin	0.16666666666667	0
bin	0.2	0
bin	0.23333333333333	0
bin	0.26666666666667	0
bin	0.3	0
bin	0.33333333333333	0
bin	0.36666666666667	0
bin	0.4	0
bin	0.43333333333333	0
bin	0.46666666666667	0
bin	0.5	0
statistic scenarioPRJP1.node[22].wlan[0].radio 	bitErrorRate:histogram
field count 0
field mean -nan
field stddev -nan
field sum 0
field sqrsum 0
field min -nan
field max -nan
attr source  bitErrorRate
attr title  "Bit error rate, histogram"
bin	-INF	0
bin	-0.5	0
bin	-0.46666666666667	0
bin	-0.43333333333333	0
bin	-0.4	0
bin	-0.36666666666667	0
bin	-0.33333333333333	0
bin	-0.3	0
bin	-0.26666666666667	0
bin	-0.23333333333333	0
bin	-0.2	0
bin	-0.16666666666667	0
bin	-0.13333333333333	0
bin	-0.1	0
bin	-0.066666666666667	0
bin	-0.033333333333333	0
bin	-6.9388939039072e-18	0
bin	0.033333333333333	0
bin	0.066666666666667	0
bin	0.1	0
bin	0.13333333333333	0
bin	0.16666666666667	0
bin	0.2	0
bin	0.23333333333333	0
bin	0.26666666666667	0
bin	0.3	0
bin	0.33333333333333	0
bin	0.36666666666667	0
bin	0.4	0
bin	0.43333333333333	0
bin	0.46666666666667	0
bin	0.5	0
statistic scenarioPRJP1.node[22].wlan[0].radio 	packetErrorRate:histogram
field count 44191
field mean 0.087213353191696
field stddev 0.27492648751848
field sum 3854.0452908943
field sqrsum 3676.206517871
field min 0
field max 1
attr source  packetErrorRate
attr title  "Packet error rate, histogram"
bin	-INF	0
bin	-0.5	0
bin	-0.43333333333333	0
bin	-0.36666666666667	0
bin	-0.3	0
bin	-0.23333333333333	0
bin	-0.16666666666667	0
bin	-0.1	0
bin	-0.033333333333333	39613
bin	0.033333333333333	284
bin	0.1	146
bin	0.16666666666667	103
bin	0.23333333333333	76
bin	0.3	68
bin	0.36666666666667	53
bin	0.43333333333333	64
bin	0.5	39
bin	0.56666666666667	44
bin	0.63333333333333	46
bin	0.7	47
bin	0.76666666666667	58
bin	0.83333333333333	55
bin	0.9	76
bin	0.96666666666667	3419
bin	1.0333333333333	0
bin	1.1	0
bin	1.1666666666667	0
bin	1.2333333333333	0
bin	1.3	0
bin	1.3666666666667	0
bin	1.4333333333333	0
bin	1.5	0
statistic scenarioPRJP1.node[22].wlan[0].radio 	minSNIR:histogram
field count 44191
field mean 4082.670961483
field stddev 35997.91602963
field sum 180417312.45889
field sqrsum 58000194187593
field min 0.00019617888726736
field max 2496824.7465268
attr source  minSNIR
attr title  "Min SNIR, histogram"
bin	-INF	0
bin	-464077.94415647	0
bin	-402200.88481734	0
bin	-340323.82547822	0
bin	-278446.7661391	0
bin	-216569.70679998	0
bin	-154692.64746085	0
bin	-92815.588121731	0
bin	-30938.528782608	43199
bin	30938.530556515	563
bin	92815.589895638	157
bin	154692.64923476	86
bin	216569.70857388	74
bin	278446.76791301	34
bin	340323.82725213	22
bin	402200.88659125	14
bin	464077.94593037	10
bin	525955.0052695	4
bin	587832.06460862	6
bin	649709.12394774	3
bin	711586.18328686	2
bin	773463.24262599	1
bin	835340.30196511	1
bin	897217.36130423	4
bin	959094.42064336	2
bin	1020971.4799825	0
bin	1082848.5393216	0
bin	1144725.5986607	2
bin	1206602.6579998	0
bin	1268479.717339	0
bin	1330356.7766781	2
bin	1392233.8360172	5
scalar scenarioPRJP1.node[22].lo0.lo 	droppedPkBitError:count 	0
attr interpolationmode  none
attr source  dropPkBitError
attr title  "packets dropped/bit error, count"
scalar scenarioPRJP1.node[22].lo0.lo 	droppedPkBitError:sum(packetBytes) 	0
attr interpolationmode  none
attr source  dropPkBitError
attr title  "packets dropped/bit error, sum(packetBytes)"
scalar scenarioPRJP1.node[22].lo0.lo 	rcvdPkFromHL:count 	0
attr interpolationmode  none
attr source  packetReceivedFromUpper
attr title  "packets received from higher layer, count"
scalar scenarioPRJP1.node[22].lo0.lo 	rcvdPkFromHL:sum(packetBytes) 	0
attr interpolationmode  none
attr source  packetReceivedFromUpper
attr title  "packets received from higher layer, sum(packetBytes)"
scalar scenarioPRJP1.node[22].lo0.lo 	passedUpPk:count 	0
attr interpolationmode  none
attr source  packetSentToUpper
attr title  "packets passed to higher layer, count"
scalar scenarioPRJP1.node[22].lo0.lo 	passedUpPk:sum(packetBytes) 	0
attr interpolationmode  none
attr source  packetSentToUpper
attr title  "packets passed to higher layer, sum(packetBytes)"
