version 2
run DSRUU-TRG-100n-18-20150804-03:42:14-8806
attr configname DSRUU-TRG-100n
attr datetime 20150804-03:42:14
attr experiment DSRUU-TRG-100n
attr inifile omnetpp.ini
attr iterationvars ""
attr iterationvars2 $repetition=18
attr measurement ""
attr network Prj_Part1_propag.scenarioPRJP1
attr processid 8806
attr repetition 18
attr replication #18
attr resultdir results
attr runnumber 18
attr seedset 18

scalar scenarioPRJP1.node[58].app 	"Total sent" 	367
scalar scenarioPRJP1.node[58].app 	"Total received" 	21
scalar scenarioPRJP1.node[58].app 	"Total deleted" 	1
scalar scenarioPRJP1.node[58].app 	dropPk:count 	1
attr interpolationmode  none
attr source  dropPk
attr title  "packets dropped, count"
scalar scenarioPRJP1.node[58].app 	dropPk:sum(packetBytes) 	512
attr interpolationmode  none
attr source  dropPk
attr title  "packets dropped, sum(packetBytes)"
scalar scenarioPRJP1.node[58].app 	outOfOrderPk:count 	10
attr interpolationmode  none
attr source  outOfOrderPk
attr title  "packets received out of order, count"
scalar scenarioPRJP1.node[58].app 	outOfOrderPk:sum(packetBytes) 	5120
attr interpolationmode  none
attr source  outOfOrderPk
attr title  "packets received out of order, sum(packetBytes)"
scalar scenarioPRJP1.node[58].app 	rcvdPk:count 	21
attr interpolationmode  none
attr source  rcvdPk
attr title  "packets received, count"
scalar scenarioPRJP1.node[58].app 	rcvdPk:sum(packetBytes) 	10752
attr interpolationmode  none
attr source  rcvdPk
attr title  "packets received, sum(packetBytes)"
statistic scenarioPRJP1.node[58].app 	endToEndDelay:histogram
field count 21
field mean 1.7435114480684
field stddev 4.0789791852733
field sum 36.613740409437
field sqrsum 396.59789943832
field min 0.002037668951
field max 18.106601173362
attr interpolationmode  none
attr source  messageAge(rcvdPk)
attr title  "delay, histogram"
attr unit  s
bin	-INF	0
bin	-9.0502440832545	0
bin	-7.8432731829604	0
bin	-6.6363022826664	0
bin	-5.4293313823723	0
bin	-4.2223604820782	0
bin	-3.0153895817842	0
bin	-1.8084186814901	0
bin	-0.60144778119603	14
bin	0.60552311909803	3
bin	1.8124940193921	1
bin	3.0194649196862	0
bin	4.2264358199802	1
bin	5.4334067202743	1
bin	6.6403776205684	0
bin	7.8473485208624	0
bin	9.0543194211565	0
bin	10.261290321451	0
bin	11.468261221745	0
bin	12.675232122039	0
bin	13.882203022333	0
bin	15.089173922627	0
bin	16.296144822921	0
bin	17.503115723215	1
bin	18.710086623509	0
bin	19.917057523803	0
bin	21.124028424097	0
bin	22.330999324391	0
bin	23.537970224685	0
bin	24.744941124979	0
bin	25.951912025273	0
bin	27.158882925567	0
scalar scenarioPRJP1.node[58].app 	sentPk:count 	367
attr interpolationmode  none
attr source  sentPk
attr title  "packets sent, count"
scalar scenarioPRJP1.node[58].app 	sentPk:sum(packetBytes) 	187904
attr interpolationmode  none
attr source  sentPk
attr title  "packets sent, sum(packetBytes)"
scalar scenarioPRJP1.node[58].udp 	droppedPkBadChecksum:count 	0
attr interpolationmode  none
attr title  "packets dropped (checksum error), count"
scalar scenarioPRJP1.node[58].udp 	droppedPkWrongPort:count 	0
attr interpolationmode  none
attr title  "packets dropped (wrong port), count"
scalar scenarioPRJP1.node[58].udp 	passedUpPk:count 	32
attr interpolationmode  none
attr title  "packets passed up, count"
scalar scenarioPRJP1.node[58].udp 	rcvdPk:count 	32
attr interpolationmode  none
attr source  rcvdPk
attr title  "packets received, count"
scalar scenarioPRJP1.node[58].udp 	rcvdPk:sum(packetBytes) 	16640
attr interpolationmode  none
attr source  rcvdPk
attr title  "packets received, sum(packetBytes)"
scalar scenarioPRJP1.node[58].udp 	sentPk:count 	367
attr interpolationmode  none
attr source  sentPk
attr title  "packets sent, count"
scalar scenarioPRJP1.node[58].udp 	sentPk:sum(packetBytes) 	190840
attr interpolationmode  none
attr source  sentPk
attr title  "packets sent, sum(packetBytes)"
scalar scenarioPRJP1.node[58].networkLayer.arp 	failedARPResolution:count 	5
attr title  "ARP failed resolutions, count"
scalar scenarioPRJP1.node[58].networkLayer.arp 	completedARPResolution:count 	135
attr title  "ARP completed resolutions, count"
scalar scenarioPRJP1.node[58].networkLayer.arp 	initiatedARPResolution:count 	22
attr title  "ARP initiated resolutions, count"
scalar scenarioPRJP1.node[58].networkLayer.arp 	sentReply:count 	11
attr title  "ARP replies sent, count"
scalar scenarioPRJP1.node[58].networkLayer.arp 	sentReq:count 	38
attr title  "ARP request sent, count"
scalar scenarioPRJP1.node[58].mobility 	startTime 	5
scalar scenarioPRJP1.node[58].mobility 	totalTime 	154.2
scalar scenarioPRJP1.node[58].mobility 	stopTime 	159.3
scalar scenarioPRJP1.node[58].mobility 	minSpeed 	2.4761356202849e-13
scalar scenarioPRJP1.node[58].mobility 	maxSpeed 	18.712875150107
scalar scenarioPRJP1.node[58].mobility 	totalDistance 	1483.5587866078
scalar scenarioPRJP1.node[58].mobility 	totalCO2Emission 	470.33494742749
scalar scenarioPRJP1.node[58].wlan.mgmt 	dataQueueLen:max 	100
attr interpolationmode  sample-hold
attr title  "data queue length, max"
scalar scenarioPRJP1.node[58].wlan.mgmt 	dataQueueLen:timeavg 	1.6561178015017
attr interpolationmode  sample-hold
attr title  "data queue length, timeavg"
scalar scenarioPRJP1.node[58].wlan.mgmt 	dropPkByQueue:count 	1
attr interpolationmode  none
attr source  dropPkByQueue
attr title  "packets dropped by queue, count"
scalar scenarioPRJP1.node[58].wlan.mgmt 	dropPkByQueue:sum(packetBytes) 	592
attr interpolationmode  none
attr source  dropPkByQueue
attr title  "packets dropped by queue, sum(packetBytes)"
scalar scenarioPRJP1.node[58].wlan.mac 	"number of received packets" 	2570
scalar scenarioPRJP1.node[58].wlan.mac 	"number of collisions" 	16166
scalar scenarioPRJP1.node[58].wlan.mac 	"number of internal collisions" 	0
scalar scenarioPRJP1.node[58].wlan.mac 	"number of retry for AC 0" 	6129
scalar scenarioPRJP1.node[58].wlan.mac 	"number of retry for AC 1" 	0
scalar scenarioPRJP1.node[58].wlan.mac 	"number of retry for AC 2" 	0
scalar scenarioPRJP1.node[58].wlan.mac 	"number of retry for AC 3" 	0
scalar scenarioPRJP1.node[58].wlan.mac 	"sent and received bits" 	5430688
scalar scenarioPRJP1.node[58].wlan.mac 	"sent packet within AC 0" 	871
scalar scenarioPRJP1.node[58].wlan.mac 	"sent packet within AC 1" 	0
scalar scenarioPRJP1.node[58].wlan.mac 	"sent packet within AC 2" 	0
scalar scenarioPRJP1.node[58].wlan.mac 	"sent packet within AC 3" 	0
scalar scenarioPRJP1.node[58].wlan.mac 	"sent in TXOP " 	0
scalar scenarioPRJP1.node[58].wlan.mac 	"sentWithoutRetry AC 0" 	748
scalar scenarioPRJP1.node[58].wlan.mac 	"sentWithoutRetry AC 1" 	0
scalar scenarioPRJP1.node[58].wlan.mac 	"sentWithoutRetry AC 2" 	0
scalar scenarioPRJP1.node[58].wlan.mac 	"sentWithoutRetry AC 3" 	0
scalar scenarioPRJP1.node[58].wlan.mac 	"numGivenUp AC 0" 	981
scalar scenarioPRJP1.node[58].wlan.mac 	"numGivenUp AC 1" 	0
scalar scenarioPRJP1.node[58].wlan.mac 	"numGivenUp AC 2" 	0
scalar scenarioPRJP1.node[58].wlan.mac 	"numGivenUp AC 3" 	0
scalar scenarioPRJP1.node[58].wlan.mac 	"numDropped AC 0" 	282
scalar scenarioPRJP1.node[58].wlan.mac 	"numDropped AC 1" 	0
scalar scenarioPRJP1.node[58].wlan.mac 	"numDropped AC 2" 	0
scalar scenarioPRJP1.node[58].wlan.mac 	"numDropped AC 3" 	0
scalar scenarioPRJP1.node[58].wlan.mac 	rcvdPkFromLL:count 	86568
attr interpolationmode  none
attr source  packetReceivedFromLower
attr title  "packets received from lower layer, count"
scalar scenarioPRJP1.node[58].wlan.mac 	rcvdPkFromLL:sum(packetBytes) 	15834886
attr interpolationmode  none
attr source  packetReceivedFromLower
attr title  "packets received from lower layer, sum(packetBytes)"
scalar scenarioPRJP1.node[58].wlan.mac 	sentDownPk:count 	16304
attr interpolationmode  none
attr source  packetSentToLower
attr title  "packets sent to lower layer, count"
scalar scenarioPRJP1.node[58].wlan.mac 	sentDownPk:sum(packetBytes) 	3202884
attr interpolationmode  none
attr source  packetSentToLower
attr title  "packets sent to lower layer, sum(packetBytes)"
scalar scenarioPRJP1.node[58].wlan.mac 	rcvdPkFromHL:count 	7887
attr interpolationmode  none
attr source  packetReceivedFromUpper
attr title  "packets received from higher layer, count"
scalar scenarioPRJP1.node[58].wlan.mac 	rcvdPkFromHL:sum(packetBytes) 	1095028
attr interpolationmode  none
attr source  packetReceivedFromUpper
attr title  "packets received from higher layer, sum(packetBytes)"
scalar scenarioPRJP1.node[58].wlan.mac 	passedUpPk:count 	28558
attr interpolationmode  none
attr source  packetSentToUpper
attr title  "packets passed to higher layer, count"
scalar scenarioPRJP1.node[58].wlan.mac 	passedUpPk:sum(packetBytes) 	2357676
attr interpolationmode  none
attr source  packetSentToUpper
attr title  "packets passed to higher layer, sum(packetBytes)"
statistic scenarioPRJP1.node[58].wlan.radio 	radioChannel:histogram
field count 1
field mean 3
field stddev -nan
field sum 3
field sqrsum 9
field min 3
field max 3
attr interpolationmode  sample-hold
attr source  radioChannelChanged
attr title  "Radio channel, histogram"
bin	-INF	0
bin	2	0
bin	3	1
bin	4	0
scalar scenarioPRJP1.node[58].wlan.radio 	transmissionState:count 	65216
attr interpolationmode  sample-hold
attr source  transmissionStateChanged
attr title  "Radio transmission state, count"
scalar scenarioPRJP1.node[58].wlan.radio 	receptionState:count 	209747
attr interpolationmode  sample-hold
attr source  receptionStateChanged
attr title  "Radio reception state, count"
scalar scenarioPRJP1.node[58].wlan.radio 	radioMode:count 	32610
attr interpolationmode  sample-hold
attr source  radioModeChanged
attr title  "Radio mode, count"
statistic scenarioPRJP1.node[58].wlan.radio 	symbolErrorRate:histogram
field count 0
field mean -nan
field stddev -nan
field sum 0
field sqrsum 0
field min -nan
field max -nan
attr source  symbolErrorRate
attr title  "Symbol error rate, histogram"
bin	-INF	0
bin	-0.5	0
bin	-0.46666666666667	0
bin	-0.43333333333333	0
bin	-0.4	0
bin	-0.36666666666667	0
bin	-0.33333333333333	0
bin	-0.3	0
bin	-0.26666666666667	0
bin	-0.23333333333333	0
bin	-0.2	0
bin	-0.16666666666667	0
bin	-0.13333333333333	0
bin	-0.1	0
bin	-0.066666666666667	0
bin	-0.033333333333333	0
bin	0	0
bin	0.033333333333333	0
bin	0.066666666666667	0
bin	0.1	0
bin	0.13333333333333	0
bin	0.16666666666667	0
bin	0.2	0
bin	0.23333333333333	0
bin	0.26666666666667	0
bin	0.3	0
bin	0.33333333333333	0
bin	0.36666666666667	0
bin	0.4	0
bin	0.43333333333333	0
bin	0.46666666666667	0
bin	0.5	0
statistic scenarioPRJP1.node[58].wlan.radio 	bitErrorRate:histogram
field count 0
field mean -nan
field stddev -nan
field sum 0
field sqrsum 0
field min -nan
field max -nan
attr source  bitErrorRate
attr title  "Bit error rate, histogram"
bin	-INF	0
bin	-0.5	0
bin	-0.46666666666667	0
bin	-0.43333333333333	0
bin	-0.4	0
bin	-0.36666666666667	0
bin	-0.33333333333333	0
bin	-0.3	0
bin	-0.26666666666667	0
bin	-0.23333333333333	0
bin	-0.2	0
bin	-0.16666666666667	0
bin	-0.13333333333333	0
bin	-0.1	0
bin	-0.066666666666667	0
bin	-0.033333333333333	0
bin	0	0
bin	0.033333333333333	0
bin	0.066666666666667	0
bin	0.1	0
bin	0.13333333333333	0
bin	0.16666666666667	0
bin	0.2	0
bin	0.23333333333333	0
bin	0.26666666666667	0
bin	0.3	0
bin	0.33333333333333	0
bin	0.36666666666667	0
bin	0.4	0
bin	0.43333333333333	0
bin	0.46666666666667	0
bin	0.5	0
statistic scenarioPRJP1.node[58].wlan.radio 	packetErrorRate:histogram
field count 86568
field mean 0.16663342332776
field stddev 0.36240278060961
field sum 14425.122190637
field sqrsum 13773.051561043
field min 0
field max 1
attr source  packetErrorRate
attr title  "Packet error rate, histogram"
bin	-INF	0
bin	-4.8187089873863e-09	0
bin	-4.1762144557348e-09	0
bin	-3.5337199240833e-09	0
bin	-2.8912253924318e-09	0
bin	-2.2487308607803e-09	0
bin	-1.6062363291288e-09	0
bin	-9.6374179747727e-10	0
bin	-3.2124726582576e-10	54133
bin	3.2124726582576e-10	638
bin	9.6374179747727e-10	328
bin	1.6062363291288e-09	205
bin	2.2487308607803e-09	142
bin	2.8912253924318e-09	122
bin	3.5337199240833e-09	124
bin	4.1762144557348e-09	86
bin	4.8187089873863e-09	92
bin	5.4612035190379e-09	64
bin	6.1036980506894e-09	69
bin	6.7461925823409e-09	49
bin	7.3886871139924e-09	57
bin	8.0311816456439e-09	55
bin	8.6736761772954e-09	43
bin	9.3161707089469e-09	31
bin	9.9586652405984e-09	42
bin	1.060115977225e-08	27
bin	1.1243654303901e-08	39
bin	1.1886148835553e-08	40
bin	1.2528643367204e-08	38
bin	1.3171137898856e-08	32
bin	1.3813632430508e-08	41
bin	1.4456126962159e-08	30071
statistic scenarioPRJP1.node[58].wlan.radio 	minSNIR:histogram
field count 86568
field mean 769.56547767
field stddev 10423.525288999
field sum 66619744.270937
field sqrsum 9456762369705.3
field min 0.00017791669820599
field max 753239.59954594
attr source  minSNIR
attr title  "Min SNIR, histogram"
bin	-INF	0
bin	-347.31297237131	0
bin	-300.118592168	0
bin	-252.92421196469	0
bin	-205.72983176137	0
bin	-158.53545155806	0
bin	-111.34107135474	0
bin	-64.14669115143	0
bin	-16.952310948116	54347
bin	30.242069255198	11382
bin	77.436449458512	4160
bin	124.63082966183	2503
bin	171.82520986514	1788
bin	219.01959006845	1274
bin	266.21397027177	913
bin	313.40835047508	779
bin	360.6027306784	677
bin	407.79711088171	549
bin	454.99149108503	508
bin	502.18587128834	385
bin	549.38025149165	350
bin	596.57463169497	314
bin	643.76901189828	299
bin	690.9633921016	254
bin	738.15777230491	214
bin	785.35215250822	214
bin	832.54653271154	179
bin	879.74091291485	185
bin	926.93529311817	181
bin	974.12967332148	165
bin	1021.3240535248	125
bin	1068.5184337281	4823
scalar scenarioPRJP1.node[58].lo0.lo 	droppedPkBitError:count 	0
attr interpolationmode  none
attr source  dropPkBitError
attr title  "packets dropped/bit error, count"
scalar scenarioPRJP1.node[58].lo0.lo 	droppedPkBitError:sum(packetBytes) 	0
attr interpolationmode  none
attr source  dropPkBitError
attr title  "packets dropped/bit error, sum(packetBytes)"
scalar scenarioPRJP1.node[58].lo0.lo 	rcvdPkFromHL:count 	32
attr interpolationmode  none
attr source  packetReceivedFromUpper
attr title  "packets received from higher layer, count"
scalar scenarioPRJP1.node[58].lo0.lo 	rcvdPkFromHL:sum(packetBytes) 	16640
attr interpolationmode  none
attr source  packetReceivedFromUpper
attr title  "packets received from higher layer, sum(packetBytes)"
scalar scenarioPRJP1.node[58].lo0.lo 	passedUpPk:count 	32
attr interpolationmode  none
attr source  packetSentToUpper
attr title  "packets passed to higher layer, count"
scalar scenarioPRJP1.node[58].lo0.lo 	passedUpPk:sum(packetBytes) 	16640
attr interpolationmode  none
attr source  packetSentToUpper
attr title  "packets passed to higher layer, sum(packetBytes)"
scalar scenarioPRJP1.node[61].app 	"Total sent" 	369
scalar scenarioPRJP1.node[61].app 	"Total received" 	10
scalar scenarioPRJP1.node[61].app 	"Total deleted" 	0
scalar scenarioPRJP1.node[61].app 	dropPk:count 	0
attr interpolationmode  none
attr source  dropPk
attr title  "packets dropped, count"
scalar scenarioPRJP1.node[61].app 	dropPk:sum(packetBytes) 	0
attr interpolationmode  none
attr source  dropPk
attr title  "packets dropped, sum(packetBytes)"
scalar scenarioPRJP1.node[61].app 	outOfOrderPk:count 	3
attr interpolationmode  none
attr source  outOfOrderPk
attr title  "packets received out of order, count"
scalar scenarioPRJP1.node[61].app 	outOfOrderPk:sum(packetBytes) 	1536
attr interpolationmode  none
attr source  outOfOrderPk
attr title  "packets received out of order, sum(packetBytes)"
scalar scenarioPRJP1.node[61].app 	rcvdPk:count 	10
attr interpolationmode  none
attr source  rcvdPk
attr title  "packets received, count"
scalar scenarioPRJP1.node[61].app 	rcvdPk:sum(packetBytes) 	5120
attr interpolationmode  none
attr source  rcvdPk
attr title  "packets received, sum(packetBytes)"
statistic scenarioPRJP1.node[61].app 	endToEndDelay:histogram
field count 10
field mean 1.0165845724324
field stddev 1.7119058444238
field sum 10.165845724324
field sqrsum 36.710036510626
field min 0.001075881021
field max 5.123918756267
attr interpolationmode  none
attr source  messageAge(rcvdPk)
attr title  "delay, histogram"
attr unit  s
bin	-INF	0
bin	-2.560345556602	0
bin	-2.2188226982523	0
bin	-1.8772998399025	0
bin	-1.5357769815528	0
bin	-1.1942541232031	0
bin	-0.85273126485333	0
bin	-0.5112084065036	0
bin	-0.16968554815387	5
bin	0.17183731019587	1
bin	0.5133601685456	1
bin	0.85488302689533	1
bin	1.1964058852451	0
bin	1.5379287435948	0
bin	1.8794516019445	0
bin	2.2209744602943	0
bin	2.562497318644	0
bin	2.9040201769937	1
bin	3.2455430353435	0
bin	3.5870658936932	0
bin	3.9285887520429	0
bin	4.2701116103927	0
bin	4.6116344687424	0
bin	4.9531573270921	1
bin	5.2946801854419	0
bin	5.6362030437916	0
bin	5.9777259021413	0
bin	6.3192487604911	0
bin	6.6607716188408	0
bin	7.0022944771905	0
bin	7.3438173355403	0
bin	7.68534019389	0
scalar scenarioPRJP1.node[61].app 	sentPk:count 	369
attr interpolationmode  none
attr source  sentPk
attr title  "packets sent, count"
scalar scenarioPRJP1.node[61].app 	sentPk:sum(packetBytes) 	188928
attr interpolationmode  none
attr source  sentPk
attr title  "packets sent, sum(packetBytes)"
scalar scenarioPRJP1.node[61].udp 	droppedPkBadChecksum:count 	0
attr interpolationmode  none
attr title  "packets dropped (checksum error), count"
scalar scenarioPRJP1.node[61].udp 	droppedPkWrongPort:count 	0
attr interpolationmode  none
attr title  "packets dropped (wrong port), count"
scalar scenarioPRJP1.node[61].udp 	passedUpPk:count 	13
attr interpolationmode  none
attr title  "packets passed up, count"
scalar scenarioPRJP1.node[61].udp 	rcvdPk:count 	13
attr interpolationmode  none
attr source  rcvdPk
attr title  "packets received, count"
scalar scenarioPRJP1.node[61].udp 	rcvdPk:sum(packetBytes) 	6760
attr interpolationmode  none
attr source  rcvdPk
attr title  "packets received, sum(packetBytes)"
scalar scenarioPRJP1.node[61].udp 	sentPk:count 	369
attr interpolationmode  none
attr source  sentPk
attr title  "packets sent, count"
scalar scenarioPRJP1.node[61].udp 	sentPk:sum(packetBytes) 	191880
attr interpolationmode  none
attr source  sentPk
attr title  "packets sent, sum(packetBytes)"
scalar scenarioPRJP1.node[61].networkLayer.arp 	failedARPResolution:count 	1
attr title  "ARP failed resolutions, count"
scalar scenarioPRJP1.node[61].networkLayer.arp 	completedARPResolution:count 	194
attr title  "ARP completed resolutions, count"
scalar scenarioPRJP1.node[61].networkLayer.arp 	initiatedARPResolution:count 	20
attr title  "ARP initiated resolutions, count"
scalar scenarioPRJP1.node[61].networkLayer.arp 	sentReply:count 	16
attr title  "ARP replies sent, count"
scalar scenarioPRJP1.node[61].networkLayer.arp 	sentReq:count 	29
attr title  "ARP request sent, count"
scalar scenarioPRJP1.node[61].mobility 	startTime 	7.3
scalar scenarioPRJP1.node[61].mobility 	totalTime 	152.6
scalar scenarioPRJP1.node[61].mobility 	stopTime 	160
scalar scenarioPRJP1.node[61].mobility 	minSpeed 	2.475801818536e-13
scalar scenarioPRJP1.node[61].mobility 	maxSpeed 	18.045610132708
scalar scenarioPRJP1.node[61].mobility 	totalDistance 	1483.4019873917
scalar scenarioPRJP1.node[61].mobility 	totalCO2Emission 	445.59145534549
scalar scenarioPRJP1.node[61].wlan.mgmt 	dataQueueLen:max 	20
attr interpolationmode  sample-hold
attr title  "data queue length, max"
scalar scenarioPRJP1.node[61].wlan.mgmt 	dataQueueLen:timeavg 	0.08113234925127
attr interpolationmode  sample-hold
attr title  "data queue length, timeavg"
scalar scenarioPRJP1.node[61].wlan.mgmt 	dropPkByQueue:count 	0
attr interpolationmode  none
attr source  dropPkByQueue
attr title  "packets dropped by queue, count"
scalar scenarioPRJP1.node[61].wlan.mgmt 	dropPkByQueue:sum(packetBytes) 	0
attr interpolationmode  none
attr source  dropPkByQueue
attr title  "packets dropped by queue, sum(packetBytes)"
scalar scenarioPRJP1.node[61].wlan.mac 	"number of received packets" 	2322
scalar scenarioPRJP1.node[61].wlan.mac 	"number of collisions" 	19320
scalar scenarioPRJP1.node[61].wlan.mac 	"number of internal collisions" 	0
scalar scenarioPRJP1.node[61].wlan.mac 	"number of retry for AC 0" 	5416
scalar scenarioPRJP1.node[61].wlan.mac 	"number of retry for AC 1" 	0
scalar scenarioPRJP1.node[61].wlan.mac 	"number of retry for AC 2" 	0
scalar scenarioPRJP1.node[61].wlan.mac 	"number of retry for AC 3" 	0
scalar scenarioPRJP1.node[61].wlan.mac 	"sent and received bits" 	5836064
scalar scenarioPRJP1.node[61].wlan.mac 	"sent packet within AC 0" 	1024
scalar scenarioPRJP1.node[61].wlan.mac 	"sent packet within AC 1" 	0
scalar scenarioPRJP1.node[61].wlan.mac 	"sent packet within AC 2" 	0
scalar scenarioPRJP1.node[61].wlan.mac 	"sent packet within AC 3" 	0
scalar scenarioPRJP1.node[61].wlan.mac 	"sent in TXOP " 	0
scalar scenarioPRJP1.node[61].wlan.mac 	"sentWithoutRetry AC 0" 	860
scalar scenarioPRJP1.node[61].wlan.mac 	"sentWithoutRetry AC 1" 	0
scalar scenarioPRJP1.node[61].wlan.mac 	"sentWithoutRetry AC 2" 	0
scalar scenarioPRJP1.node[61].wlan.mac 	"sentWithoutRetry AC 3" 	0
scalar scenarioPRJP1.node[61].wlan.mac 	"numGivenUp AC 0" 	846
scalar scenarioPRJP1.node[61].wlan.mac 	"numGivenUp AC 1" 	0
scalar scenarioPRJP1.node[61].wlan.mac 	"numGivenUp AC 2" 	0
scalar scenarioPRJP1.node[61].wlan.mac 	"numGivenUp AC 3" 	0
scalar scenarioPRJP1.node[61].wlan.mac 	"numDropped AC 0" 	120
scalar scenarioPRJP1.node[61].wlan.mac 	"numDropped AC 1" 	0
scalar scenarioPRJP1.node[61].wlan.mac 	"numDropped AC 2" 	0
scalar scenarioPRJP1.node[61].wlan.mac 	"numDropped AC 3" 	0
scalar scenarioPRJP1.node[61].wlan.mac 	rcvdPkFromLL:count 	91503
attr interpolationmode  none
attr source  packetReceivedFromLower
attr title  "packets received from lower layer, count"
scalar scenarioPRJP1.node[61].wlan.mac 	rcvdPkFromLL:sum(packetBytes) 	16807560
attr interpolationmode  none
attr source  packetReceivedFromLower
attr title  "packets received from lower layer, sum(packetBytes)"
scalar scenarioPRJP1.node[61].wlan.mac 	sentDownPk:count 	15455
attr interpolationmode  none
attr source  packetSentToLower
attr title  "packets sent to lower layer, count"
scalar scenarioPRJP1.node[61].wlan.mac 	sentDownPk:sum(packetBytes) 	2771812
attr interpolationmode  none
attr source  packetSentToLower
attr title  "packets sent to lower layer, sum(packetBytes)"
scalar scenarioPRJP1.node[61].wlan.mac 	rcvdPkFromHL:count 	7837
attr interpolationmode  none
attr source  packetReceivedFromUpper
attr title  "packets received from higher layer, count"
scalar scenarioPRJP1.node[61].wlan.mac 	rcvdPkFromHL:sum(packetBytes) 	1023276
attr interpolationmode  none
attr source  packetReceivedFromUpper
attr title  "packets received from higher layer, sum(packetBytes)"
scalar scenarioPRJP1.node[61].wlan.mac 	passedUpPk:count 	24161
attr interpolationmode  none
attr source  packetSentToUpper
attr title  "packets passed to higher layer, count"
scalar scenarioPRJP1.node[61].wlan.mac 	passedUpPk:sum(packetBytes) 	2012536
attr interpolationmode  none
attr source  packetSentToUpper
attr title  "packets passed to higher layer, sum(packetBytes)"
statistic scenarioPRJP1.node[61].wlan.radio 	radioChannel:histogram
field count 1
field mean 3
field stddev -nan
field sum 3
field sqrsum 9
field min 3
field max 3
attr interpolationmode  sample-hold
attr source  radioChannelChanged
attr title  "Radio channel, histogram"
bin	-INF	0
bin	2	0
bin	3	1
bin	4	0
scalar scenarioPRJP1.node[61].wlan.radio 	transmissionState:count 	61820
attr interpolationmode  sample-hold
attr source  transmissionStateChanged
attr title  "Radio transmission state, count"
scalar scenarioPRJP1.node[61].wlan.radio 	receptionState:count 	216990
attr interpolationmode  sample-hold
attr source  receptionStateChanged
attr title  "Radio reception state, count"
scalar scenarioPRJP1.node[61].wlan.radio 	radioMode:count 	30912
attr interpolationmode  sample-hold
attr source  radioModeChanged
attr title  "Radio mode, count"
statistic scenarioPRJP1.node[61].wlan.radio 	symbolErrorRate:histogram
field count 0
field mean -nan
field stddev -nan
field sum 0
field sqrsum 0
field min -nan
field max -nan
attr source  symbolErrorRate
attr title  "Symbol error rate, histogram"
bin	-INF	0
bin	-0.5	0
bin	-0.46666666666667	0
bin	-0.43333333333333	0
bin	-0.4	0
bin	-0.36666666666667	0
bin	-0.33333333333333	0
bin	-0.3	0
bin	-0.26666666666667	0
bin	-0.23333333333333	0
bin	-0.2	0
bin	-0.16666666666667	0
bin	-0.13333333333333	0
bin	-0.1	0
bin	-0.066666666666667	0
bin	-0.033333333333333	0
bin	0	0
bin	0.033333333333333	0
bin	0.066666666666667	0
bin	0.1	0
bin	0.13333333333333	0
bin	0.16666666666667	0
bin	0.2	0
bin	0.23333333333333	0
bin	0.26666666666667	0
bin	0.3	0
bin	0.33333333333333	0
bin	0.36666666666667	0
bin	0.4	0
bin	0.43333333333333	0
bin	0.46666666666667	0
bin	0.5	0
statistic scenarioPRJP1.node[61].wlan.radio 	bitErrorRate:histogram
field count 0
field mean -nan
field stddev -nan
field sum 0
field sqrsum 0
field min -nan
field max -nan
attr source  bitErrorRate
attr title  "Bit error rate, histogram"
bin	-INF	0
bin	-0.5	0
bin	-0.46666666666667	0
bin	-0.43333333333333	0
bin	-0.4	0
bin	-0.36666666666667	0
bin	-0.33333333333333	0
bin	-0.3	0
bin	-0.26666666666667	0
bin	-0.23333333333333	0
bin	-0.2	0
bin	-0.16666666666667	0
bin	-0.13333333333333	0
bin	-0.1	0
bin	-0.066666666666667	0
bin	-0.033333333333333	0
bin	0	0
bin	0.033333333333333	0
bin	0.066666666666667	0
bin	0.1	0
bin	0.13333333333333	0
bin	0.16666666666667	0
bin	0.2	0
bin	0.23333333333333	0
bin	0.26666666666667	0
bin	0.3	0
bin	0.33333333333333	0
bin	0.36666666666667	0
bin	0.4	0
bin	0.43333333333333	0
bin	0.46666666666667	0
bin	0.5	0
statistic scenarioPRJP1.node[61].wlan.radio 	packetErrorRate:histogram
field count 91503
field mean 0.18539672359462
field stddev 0.37813022452753
field sum 16964.356399079
field sqrsum 16228.317762378
field min 0
field max 1
attr source  packetErrorRate
attr title  "Packet error rate, histogram"
bin	-INF	0
bin	-0.5	0
bin	-0.43333333333333	0
bin	-0.36666666666667	0
bin	-0.3	0
bin	-0.23333333333333	0
bin	-0.16666666666667	0
bin	-0.1	0
bin	-0.033333333333333	71546
bin	0.033333333333333	1202
bin	0.1	581
bin	0.16666666666667	411
bin	0.23333333333333	317
bin	0.3	278
bin	0.36666666666667	228
bin	0.43333333333333	216
bin	0.5	211
bin	0.56666666666667	193
bin	0.63333333333333	180
bin	0.7	208
bin	0.76666666666667	204
bin	0.83333333333333	239
bin	0.9	401
bin	0.96666666666667	15088
bin	1.0333333333333	0
bin	1.1	0
bin	1.1666666666667	0
bin	1.2333333333333	0
bin	1.3	0
bin	1.3666666666667	0
bin	1.4333333333333	0
bin	1.5	0
statistic scenarioPRJP1.node[61].wlan.radio 	minSNIR:histogram
field count 91503
field mean 688.22648460995
field stddev 6869.2453893569
field sum 62974788.021264
field sqrsum 4361002988100.2
field min 0.00063648059962737
field max 753049.62614191
attr source  minSNIR
attr title  "Min SNIR, histogram"
bin	-INF	0
bin	-8943.6817700488	0
bin	-7751.0419472699	0
bin	-6558.4021244909	0
bin	-5365.762301712	0
bin	-4173.122478933	0
bin	-2980.4826561541	0
bin	-1787.8428333751	0
bin	-595.20301059614	82650
bin	597.43681218281	4519
bin	1790.0766349618	1195
bin	2982.7164577407	635
bin	4175.3562805197	425
bin	5367.9961032986	334
bin	6560.6359260776	269
bin	7753.2757488565	191
bin	8945.9155716355	144
bin	10138.555394414	117
bin	11331.195217193	120
bin	12523.835039972	101
bin	13716.474862751	88
bin	14909.11468553	75
bin	16101.754508309	62
bin	17294.394331088	54
bin	18487.034153867	47
bin	19679.673976646	40
bin	20872.313799425	24
bin	22064.953622204	19
bin	23257.593444983	17
bin	24450.233267762	16
bin	25642.873090541	19
bin	26835.51291332	342
scalar scenarioPRJP1.node[61].lo0.lo 	droppedPkBitError:count 	0
attr interpolationmode  none
attr source  dropPkBitError
attr title  "packets dropped/bit error, count"
scalar scenarioPRJP1.node[61].lo0.lo 	droppedPkBitError:sum(packetBytes) 	0
attr interpolationmode  none
attr source  dropPkBitError
attr title  "packets dropped/bit error, sum(packetBytes)"
scalar scenarioPRJP1.node[61].lo0.lo 	rcvdPkFromHL:count 	13
attr interpolationmode  none
attr source  packetReceivedFromUpper
attr title  "packets received from higher layer, count"
scalar scenarioPRJP1.node[61].lo0.lo 	rcvdPkFromHL:sum(packetBytes) 	6760
attr interpolationmode  none
attr source  packetReceivedFromUpper
attr title  "packets received from higher layer, sum(packetBytes)"
scalar scenarioPRJP1.node[61].lo0.lo 	passedUpPk:count 	13
attr interpolationmode  none
attr source  packetSentToUpper
attr title  "packets passed to higher layer, count"
scalar scenarioPRJP1.node[61].lo0.lo 	passedUpPk:sum(packetBytes) 	6760
attr interpolationmode  none
attr source  packetSentToUpper
attr title  "packets passed to higher layer, sum(packetBytes)"
scalar scenarioPRJP1.node[87].app 	"Total sent" 	371
scalar scenarioPRJP1.node[87].app 	"Total received" 	33
scalar scenarioPRJP1.node[87].app 	"Total deleted" 	0
scalar scenarioPRJP1.node[87].app 	dropPk:count 	0
attr interpolationmode  none
attr source  dropPk
attr title  "packets dropped, count"
scalar scenarioPRJP1.node[87].app 	dropPk:sum(packetBytes) 	0
attr interpolationmode  none
attr source  dropPk
attr title  "packets dropped, sum(packetBytes)"
scalar scenarioPRJP1.node[87].app 	outOfOrderPk:count 	4
attr interpolationmode  none
attr source  outOfOrderPk
attr title  "packets received out of order, count"
scalar scenarioPRJP1.node[87].app 	outOfOrderPk:sum(packetBytes) 	2048
attr interpolationmode  none
attr source  outOfOrderPk
attr title  "packets received out of order, sum(packetBytes)"
scalar scenarioPRJP1.node[87].app 	rcvdPk:count 	33
attr interpolationmode  none
attr source  rcvdPk
attr title  "packets received, count"
scalar scenarioPRJP1.node[87].app 	rcvdPk:sum(packetBytes) 	16896
attr interpolationmode  none
attr source  rcvdPk
attr title  "packets received, sum(packetBytes)"
statistic scenarioPRJP1.node[87].app 	endToEndDelay:histogram
field count 33
field mean 2.0616997651367
field stddev 4.3053618549971
field sum 68.036092249512
field sqrsum 733.42649789048
field min 0.002063092033
field max 16.88690416797
attr interpolationmode  none
attr source  messageAge(rcvdPk)
attr title  "delay, histogram"
attr unit  s
bin	-INF	0
bin	-8.4403574459355	0
bin	-7.3147013742064	0
bin	-6.1890453024772	0
bin	-5.0633892307481	0
bin	-3.937733159019	0
bin	-2.8120770872898	0
bin	-1.6864210155607	0
bin	-0.56076494383157	22
bin	0.56489112789757	2
bin	1.6905471996267	2
bin	2.8162032713558	1
bin	3.941859343085	3
bin	5.0675154148141	0
bin	6.1931714865432	0
bin	7.3188275582724	0
bin	8.4444836300015	0
bin	9.5701397017306	0
bin	10.69579577346	0
bin	11.821451845189	0
bin	12.947107916918	2
bin	14.072763988647	0
bin	15.198420060376	0
bin	16.324076132105	1
bin	17.449732203835	0
bin	18.575388275564	0
bin	19.701044347293	0
bin	20.826700419022	0
bin	21.952356490751	0
bin	23.07801256248	0
bin	24.203668634209	0
bin	25.329324705938	0
scalar scenarioPRJP1.node[87].app 	sentPk:count 	371
attr interpolationmode  none
attr source  sentPk
attr title  "packets sent, count"
scalar scenarioPRJP1.node[87].app 	sentPk:sum(packetBytes) 	189952
attr interpolationmode  none
attr source  sentPk
attr title  "packets sent, sum(packetBytes)"
scalar scenarioPRJP1.node[87].udp 	droppedPkBadChecksum:count 	0
attr interpolationmode  none
attr title  "packets dropped (checksum error), count"
scalar scenarioPRJP1.node[87].udp 	droppedPkWrongPort:count 	0
attr interpolationmode  none
attr title  "packets dropped (wrong port), count"
scalar scenarioPRJP1.node[87].udp 	passedUpPk:count 	37
attr interpolationmode  none
attr title  "packets passed up, count"
scalar scenarioPRJP1.node[87].udp 	rcvdPk:count 	37
attr interpolationmode  none
attr source  rcvdPk
attr title  "packets received, count"
scalar scenarioPRJP1.node[87].udp 	rcvdPk:sum(packetBytes) 	19240
attr interpolationmode  none
attr source  rcvdPk
attr title  "packets received, sum(packetBytes)"
scalar scenarioPRJP1.node[87].udp 	sentPk:count 	371
attr interpolationmode  none
attr source  sentPk
attr title  "packets sent, count"
scalar scenarioPRJP1.node[87].udp 	sentPk:sum(packetBytes) 	192920
attr interpolationmode  none
attr source  sentPk
attr title  "packets sent, sum(packetBytes)"
scalar scenarioPRJP1.node[87].networkLayer.arp 	failedARPResolution:count 	8
attr title  "ARP failed resolutions, count"
scalar scenarioPRJP1.node[87].networkLayer.arp 	completedARPResolution:count 	117
attr title  "ARP completed resolutions, count"
scalar scenarioPRJP1.node[87].networkLayer.arp 	initiatedARPResolution:count 	21
attr title  "ARP initiated resolutions, count"
scalar scenarioPRJP1.node[87].networkLayer.arp 	sentReply:count 	9
attr title  "ARP replies sent, count"
scalar scenarioPRJP1.node[87].networkLayer.arp 	sentReq:count 	45
attr title  "ARP request sent, count"
scalar scenarioPRJP1.node[87].mobility 	startTime 	9.7
scalar scenarioPRJP1.node[87].mobility 	totalTime 	151.5
scalar scenarioPRJP1.node[87].mobility 	stopTime 	161.3
scalar scenarioPRJP1.node[87].mobility 	minSpeed 	2.4778980253844e-13
scalar scenarioPRJP1.node[87].mobility 	maxSpeed 	16.891718259082
scalar scenarioPRJP1.node[87].mobility 	totalDistance 	1484.8649810207
scalar scenarioPRJP1.node[87].mobility 	totalCO2Emission 	427.87518070639
scalar scenarioPRJP1.node[87].wlan.mgmt 	dataQueueLen:max 	20
attr interpolationmode  sample-hold
attr title  "data queue length, max"
scalar scenarioPRJP1.node[87].wlan.mgmt 	dataQueueLen:timeavg 	0.047885819506966
attr interpolationmode  sample-hold
attr title  "data queue length, timeavg"
scalar scenarioPRJP1.node[87].wlan.mgmt 	dropPkByQueue:count 	0
attr interpolationmode  none
attr source  dropPkByQueue
attr title  "packets dropped by queue, count"
scalar scenarioPRJP1.node[87].wlan.mgmt 	dropPkByQueue:sum(packetBytes) 	0
attr interpolationmode  none
attr source  dropPkByQueue
attr title  "packets dropped by queue, sum(packetBytes)"
scalar scenarioPRJP1.node[87].wlan.mac 	"number of received packets" 	1651
scalar scenarioPRJP1.node[87].wlan.mac 	"number of collisions" 	18009
scalar scenarioPRJP1.node[87].wlan.mac 	"number of internal collisions" 	0
scalar scenarioPRJP1.node[87].wlan.mac 	"number of retry for AC 0" 	4658
scalar scenarioPRJP1.node[87].wlan.mac 	"number of retry for AC 1" 	0
scalar scenarioPRJP1.node[87].wlan.mac 	"number of retry for AC 2" 	0
scalar scenarioPRJP1.node[87].wlan.mac 	"number of retry for AC 3" 	0
scalar scenarioPRJP1.node[87].wlan.mac 	"sent and received bits" 	4381472
scalar scenarioPRJP1.node[87].wlan.mac 	"sent packet within AC 0" 	899
scalar scenarioPRJP1.node[87].wlan.mac 	"sent packet within AC 1" 	0
scalar scenarioPRJP1.node[87].wlan.mac 	"sent packet within AC 2" 	0
scalar scenarioPRJP1.node[87].wlan.mac 	"sent packet within AC 3" 	0
scalar scenarioPRJP1.node[87].wlan.mac 	"sent in TXOP " 	0
scalar scenarioPRJP1.node[87].wlan.mac 	"sentWithoutRetry AC 0" 	807
scalar scenarioPRJP1.node[87].wlan.mac 	"sentWithoutRetry AC 1" 	0
scalar scenarioPRJP1.node[87].wlan.mac 	"sentWithoutRetry AC 2" 	0
scalar scenarioPRJP1.node[87].wlan.mac 	"sentWithoutRetry AC 3" 	0
scalar scenarioPRJP1.node[87].wlan.mac 	"numGivenUp AC 0" 	744
scalar scenarioPRJP1.node[87].wlan.mac 	"numGivenUp AC 1" 	0
scalar scenarioPRJP1.node[87].wlan.mac 	"numGivenUp AC 2" 	0
scalar scenarioPRJP1.node[87].wlan.mac 	"numGivenUp AC 3" 	0
scalar scenarioPRJP1.node[87].wlan.mac 	"numDropped AC 0" 	96
scalar scenarioPRJP1.node[87].wlan.mac 	"numDropped AC 1" 	0
scalar scenarioPRJP1.node[87].wlan.mac 	"numDropped AC 2" 	0
scalar scenarioPRJP1.node[87].wlan.mac 	"numDropped AC 3" 	0
scalar scenarioPRJP1.node[87].wlan.mac 	rcvdPkFromLL:count 	67583
attr interpolationmode  none
attr source  packetReceivedFromLower
attr title  "packets received from lower layer, count"
scalar scenarioPRJP1.node[87].wlan.mac 	rcvdPkFromLL:sum(packetBytes) 	13003974
attr interpolationmode  none
attr source  packetReceivedFromLower
attr title  "packets received from lower layer, sum(packetBytes)"
scalar scenarioPRJP1.node[87].wlan.mac 	sentDownPk:count 	12402
attr interpolationmode  none
attr source  packetSentToLower
attr title  "packets sent to lower layer, count"
scalar scenarioPRJP1.node[87].wlan.mac 	sentDownPk:sum(packetBytes) 	2356558
attr interpolationmode  none
attr source  packetSentToLower
attr title  "packets sent to lower layer, sum(packetBytes)"
scalar scenarioPRJP1.node[87].wlan.mac 	rcvdPkFromHL:count 	6189
attr interpolationmode  none
attr source  packetReceivedFromUpper
attr title  "packets received from higher layer, count"
scalar scenarioPRJP1.node[87].wlan.mac 	rcvdPkFromHL:sum(packetBytes) 	808412
attr interpolationmode  none
attr source  packetReceivedFromUpper
attr title  "packets received from higher layer, sum(packetBytes)"
scalar scenarioPRJP1.node[87].wlan.mac 	passedUpPk:count 	18964
attr interpolationmode  none
attr source  packetSentToUpper
attr title  "packets passed to higher layer, count"
scalar scenarioPRJP1.node[87].wlan.mac 	passedUpPk:sum(packetBytes) 	1594768
attr interpolationmode  none
attr source  packetSentToUpper
attr title  "packets passed to higher layer, sum(packetBytes)"
statistic scenarioPRJP1.node[87].wlan.radio 	radioChannel:histogram
field count 1
field mean 3
field stddev -nan
field sum 3
field sqrsum 9
field min 3
field max 3
attr interpolationmode  sample-hold
attr source  radioChannelChanged
attr title  "Radio channel, histogram"
bin	-INF	0
bin	2	0
bin	3	1
bin	4	0
scalar scenarioPRJP1.node[87].wlan.radio 	transmissionState:count 	49608
attr interpolationmode  sample-hold
attr source  transmissionStateChanged
attr title  "Radio transmission state, count"
scalar scenarioPRJP1.node[87].wlan.radio 	receptionState:count 	162746
attr interpolationmode  sample-hold
attr source  receptionStateChanged
attr title  "Radio reception state, count"
scalar scenarioPRJP1.node[87].wlan.radio 	radioMode:count 	24806
attr interpolationmode  sample-hold
attr source  radioModeChanged
attr title  "Radio mode, count"
statistic scenarioPRJP1.node[87].wlan.radio 	symbolErrorRate:histogram
field count 0
field mean -nan
field stddev -nan
field sum 0
field sqrsum 0
field min -nan
field max -nan
attr source  symbolErrorRate
attr title  "Symbol error rate, histogram"
bin	-INF	0
bin	-0.5	0
bin	-0.46666666666667	0
bin	-0.43333333333333	0
bin	-0.4	0
bin	-0.36666666666667	0
bin	-0.33333333333333	0
bin	-0.3	0
bin	-0.26666666666667	0
bin	-0.23333333333333	0
bin	-0.2	0
bin	-0.16666666666667	0
bin	-0.13333333333333	0
bin	-0.1	0
bin	-0.066666666666667	0
bin	-0.033333333333333	0
bin	0	0
bin	0.033333333333333	0
bin	0.066666666666667	0
bin	0.1	0
bin	0.13333333333333	0
bin	0.16666666666667	0
bin	0.2	0
bin	0.23333333333333	0
bin	0.26666666666667	0
bin	0.3	0
bin	0.33333333333333	0
bin	0.36666666666667	0
bin	0.4	0
bin	0.43333333333333	0
bin	0.46666666666667	0
bin	0.5	0
statistic scenarioPRJP1.node[87].wlan.radio 	bitErrorRate:histogram
field count 0
field mean -nan
field stddev -nan
field sum 0
field sqrsum 0
field min -nan
field max -nan
attr source  bitErrorRate
attr title  "Bit error rate, histogram"
bin	-INF	0
bin	-0.5	0
bin	-0.46666666666667	0
bin	-0.43333333333333	0
bin	-0.4	0
bin	-0.36666666666667	0
bin	-0.33333333333333	0
bin	-0.3	0
bin	-0.26666666666667	0
bin	-0.23333333333333	0
bin	-0.2	0
bin	-0.16666666666667	0
bin	-0.13333333333333	0
bin	-0.1	0
bin	-0.066666666666667	0
bin	-0.033333333333333	0
bin	0	0
bin	0.033333333333333	0
bin	0.066666666666667	0
bin	0.1	0
bin	0.13333333333333	0
bin	0.16666666666667	0
bin	0.2	0
bin	0.23333333333333	0
bin	0.26666666666667	0
bin	0.3	0
bin	0.33333333333333	0
bin	0.36666666666667	0
bin	0.4	0
bin	0.43333333333333	0
bin	0.46666666666667	0
bin	0.5	0
statistic scenarioPRJP1.node[87].wlan.radio 	packetErrorRate:histogram
field count 67583
field mean 0.23360790080966
field stddev 0.41244309140123
field sum 15787.92276042
field sqrsum 15184.510453116
field min 0
field max 1
attr source  packetErrorRate
attr title  "Packet error rate, histogram"
bin	-INF	0
bin	-0.5	0
bin	-0.43333333333333	0
bin	-0.36666666666667	0
bin	-0.3	0
bin	-0.23333333333333	0
bin	-0.16666666666667	0
bin	-0.1	0
bin	-0.033333333333333	49296
bin	0.033333333333333	1019
bin	0.1	494
bin	0.16666666666667	345
bin	0.23333333333333	254
bin	0.3	230
bin	0.36666666666667	201
bin	0.43333333333333	176
bin	0.5	162
bin	0.56666666666667	143
bin	0.63333333333333	149
bin	0.7	160
bin	0.76666666666667	170
bin	0.83333333333333	191
bin	0.9	334
bin	0.96666666666667	14259
bin	1.0333333333333	0
bin	1.1	0
bin	1.1666666666667	0
bin	1.2333333333333	0
bin	1.3	0
bin	1.3666666666667	0
bin	1.4333333333333	0
bin	1.5	0
statistic scenarioPRJP1.node[87].wlan.radio 	minSNIR:histogram
field count 67583
field mean 704.99685202341
field stddev 6715.2735897736
field sum 47645802.250298
field sqrsum 3081193630870.2
field min 0.00071140006538652
field max 735621.29732574
attr source  minSNIR
attr title  "Min SNIR, histogram"
bin	-INF	0
bin	-463.8020043587	0
bin	-401.80002521333	0
bin	-339.79804606795	0
bin	-277.79606692258	0
bin	-215.79408777721	0
bin	-153.79210863184	0
bin	-91.790129486466	0
bin	-29.788150341094	41449
bin	32.213828804278	6324
bin	94.21580794965	2683
bin	156.21778709502	1428
bin	218.21976624039	920
bin	280.22174538577	701
bin	342.22372453114	551
bin	404.22570367651	595
bin	466.22768282188	585
bin	528.22966196725	594
bin	590.23164111263	611
bin	652.233620258	519
bin	714.23559940337	503
bin	776.23757854874	488
bin	838.23955769411	481
bin	900.24153683949	467
bin	962.24351598486	449
bin	1024.2454951302	399
bin	1086.2474742756	370
bin	1148.249453421	331
bin	1210.2514325663	354
bin	1272.2534117117	307
bin	1334.2553908571	297
bin	1396.2573700025	6177
scalar scenarioPRJP1.node[87].lo0.lo 	droppedPkBitError:count 	0
attr interpolationmode  none
attr source  dropPkBitError
attr title  "packets dropped/bit error, count"
scalar scenarioPRJP1.node[87].lo0.lo 	droppedPkBitError:sum(packetBytes) 	0
attr interpolationmode  none
attr source  dropPkBitError
attr title  "packets dropped/bit error, sum(packetBytes)"
scalar scenarioPRJP1.node[87].lo0.lo 	rcvdPkFromHL:count 	37
attr interpolationmode  none
attr source  packetReceivedFromUpper
attr title  "packets received from higher layer, count"
scalar scenarioPRJP1.node[87].lo0.lo 	rcvdPkFromHL:sum(packetBytes) 	19240
attr interpolationmode  none
attr source  packetReceivedFromUpper
attr title  "packets received from higher layer, sum(packetBytes)"
scalar scenarioPRJP1.node[87].lo0.lo 	passedUpPk:count 	37
attr interpolationmode  none
attr source  packetSentToUpper
attr title  "packets passed to higher layer, count"
scalar scenarioPRJP1.node[87].lo0.lo 	passedUpPk:sum(packetBytes) 	19240
attr interpolationmode  none
attr source  packetSentToUpper
attr title  "packets passed to higher layer, sum(packetBytes)"
scalar scenarioPRJP1.node[52].app 	"Total sent" 	376
scalar scenarioPRJP1.node[52].app 	"Total received" 	18
scalar scenarioPRJP1.node[52].app 	"Total deleted" 	0
scalar scenarioPRJP1.node[52].app 	dropPk:count 	0
attr interpolationmode  none
attr source  dropPk
attr title  "packets dropped, count"
scalar scenarioPRJP1.node[52].app 	dropPk:sum(packetBytes) 	0
attr interpolationmode  none
attr source  dropPk
attr title  "packets dropped, sum(packetBytes)"
scalar scenarioPRJP1.node[52].app 	outOfOrderPk:count 	1
attr interpolationmode  none
attr source  outOfOrderPk
attr title  "packets received out of order, count"
scalar scenarioPRJP1.node[52].app 	outOfOrderPk:sum(packetBytes) 	512
attr interpolationmode  none
attr source  outOfOrderPk
attr title  "packets received out of order, sum(packetBytes)"
scalar scenarioPRJP1.node[52].app 	rcvdPk:count 	18
attr interpolationmode  none
attr source  rcvdPk
attr title  "packets received, count"
scalar scenarioPRJP1.node[52].app 	rcvdPk:sum(packetBytes) 	9216
attr interpolationmode  none
attr source  rcvdPk
attr title  "packets received, sum(packetBytes)"
statistic scenarioPRJP1.node[52].app 	endToEndDelay:histogram
field count 18
field mean 0.66987985945939
field stddev 1.8065479266772
field sum 12.057837470269
field sqrsum 63.558764463458
field min 0.001146192238
field max 7.579312371185
attr interpolationmode  none
attr source  messageAge(rcvdPk)
attr title  "delay, histogram"
attr unit  s
bin	-INF	0
bin	-3.7879368972355	0
bin	-3.282725818639	0
bin	-2.7775147400426	0
bin	-2.2723036614461	0
bin	-1.7670925828496	0
bin	-1.2618815042532	0
bin	-0.7566704256567	0
bin	-0.25145934706023	14
bin	0.25375173153623	0
bin	0.7589628101327	1
bin	1.2641738887292	1
bin	1.7693849673256	1
bin	2.2745960459221	0
bin	2.7798071245186	0
bin	3.285018203115	0
bin	3.7902292817115	0
bin	4.295440360308	0
bin	4.8006514389044	0
bin	5.3058625175009	0
bin	5.8110735960974	0
bin	6.3162846746938	0
bin	6.8214957532903	0
bin	7.3267068318868	1
bin	7.8319179104832	0
bin	8.3371289890797	0
bin	8.8423400676762	0
bin	9.3475511462726	0
bin	9.8527622248691	0
bin	10.357973303466	0
bin	10.863184382062	0
bin	11.368395460658	0
scalar scenarioPRJP1.node[52].app 	sentPk:count 	376
attr interpolationmode  none
attr source  sentPk
attr title  "packets sent, count"
scalar scenarioPRJP1.node[52].app 	sentPk:sum(packetBytes) 	192512
attr interpolationmode  none
attr source  sentPk
attr title  "packets sent, sum(packetBytes)"
scalar scenarioPRJP1.node[52].udp 	droppedPkBadChecksum:count 	0
attr interpolationmode  none
attr title  "packets dropped (checksum error), count"
scalar scenarioPRJP1.node[52].udp 	droppedPkWrongPort:count 	0
attr interpolationmode  none
attr title  "packets dropped (wrong port), count"
scalar scenarioPRJP1.node[52].udp 	passedUpPk:count 	19
attr interpolationmode  none
attr title  "packets passed up, count"
scalar scenarioPRJP1.node[52].udp 	rcvdPk:count 	19
attr interpolationmode  none
attr source  rcvdPk
attr title  "packets received, count"
scalar scenarioPRJP1.node[52].udp 	rcvdPk:sum(packetBytes) 	9880
attr interpolationmode  none
attr source  rcvdPk
attr title  "packets received, sum(packetBytes)"
scalar scenarioPRJP1.node[52].udp 	sentPk:count 	376
attr interpolationmode  none
attr source  sentPk
attr title  "packets sent, count"
scalar scenarioPRJP1.node[52].udp 	sentPk:sum(packetBytes) 	195520
attr interpolationmode  none
attr source  sentPk
attr title  "packets sent, sum(packetBytes)"
scalar scenarioPRJP1.node[52].networkLayer.arp 	failedARPResolution:count 	9
attr title  "ARP failed resolutions, count"
scalar scenarioPRJP1.node[52].networkLayer.arp 	completedARPResolution:count 	156
attr title  "ARP completed resolutions, count"
scalar scenarioPRJP1.node[52].networkLayer.arp 	initiatedARPResolution:count 	24
attr title  "ARP initiated resolutions, count"
scalar scenarioPRJP1.node[52].networkLayer.arp 	sentReply:count 	10
attr title  "ARP replies sent, count"
scalar scenarioPRJP1.node[52].networkLayer.arp 	sentReq:count 	51
attr title  "ARP request sent, count"
scalar scenarioPRJP1.node[52].mobility 	startTime 	4.9
scalar scenarioPRJP1.node[52].mobility 	totalTime 	156.4
scalar scenarioPRJP1.node[52].mobility 	stopTime 	161.4
scalar scenarioPRJP1.node[52].mobility 	minSpeed 	2.4756972571326e-13
scalar scenarioPRJP1.node[52].mobility 	maxSpeed 	17.369814234045
scalar scenarioPRJP1.node[52].mobility 	totalDistance 	1449.5944128203
scalar scenarioPRJP1.node[52].mobility 	totalCO2Emission 	408.23349296273
scalar scenarioPRJP1.node[52].wlan.mgmt 	dataQueueLen:max 	13
attr interpolationmode  sample-hold
attr title  "data queue length, max"
scalar scenarioPRJP1.node[52].wlan.mgmt 	dataQueueLen:timeavg 	0.011041919315489
attr interpolationmode  sample-hold
attr title  "data queue length, timeavg"
scalar scenarioPRJP1.node[52].wlan.mgmt 	dropPkByQueue:count 	0
attr interpolationmode  none
attr source  dropPkByQueue
attr title  "packets dropped by queue, count"
scalar scenarioPRJP1.node[52].wlan.mgmt 	dropPkByQueue:sum(packetBytes) 	0
attr interpolationmode  none
attr source  dropPkByQueue
attr title  "packets dropped by queue, sum(packetBytes)"
scalar scenarioPRJP1.node[52].wlan.mac 	"number of received packets" 	1897
scalar scenarioPRJP1.node[52].wlan.mac 	"number of collisions" 	19158
scalar scenarioPRJP1.node[52].wlan.mac 	"number of internal collisions" 	0
scalar scenarioPRJP1.node[52].wlan.mac 	"number of retry for AC 0" 	4262
scalar scenarioPRJP1.node[52].wlan.mac 	"number of retry for AC 1" 	0
scalar scenarioPRJP1.node[52].wlan.mac 	"number of retry for AC 2" 	0
scalar scenarioPRJP1.node[52].wlan.mac 	"number of retry for AC 3" 	0
scalar scenarioPRJP1.node[52].wlan.mac 	"sent and received bits" 	5416768
scalar scenarioPRJP1.node[52].wlan.mac 	"sent packet within AC 0" 	965
scalar scenarioPRJP1.node[52].wlan.mac 	"sent packet within AC 1" 	0
scalar scenarioPRJP1.node[52].wlan.mac 	"sent packet within AC 2" 	0
scalar scenarioPRJP1.node[52].wlan.mac 	"sent packet within AC 3" 	0
scalar scenarioPRJP1.node[52].wlan.mac 	"sent in TXOP " 	0
scalar scenarioPRJP1.node[52].wlan.mac 	"sentWithoutRetry AC 0" 	863
scalar scenarioPRJP1.node[52].wlan.mac 	"sentWithoutRetry AC 1" 	0
scalar scenarioPRJP1.node[52].wlan.mac 	"sentWithoutRetry AC 2" 	0
scalar scenarioPRJP1.node[52].wlan.mac 	"sentWithoutRetry AC 3" 	0
scalar scenarioPRJP1.node[52].wlan.mac 	"numGivenUp AC 0" 	677
scalar scenarioPRJP1.node[52].wlan.mac 	"numGivenUp AC 1" 	0
scalar scenarioPRJP1.node[52].wlan.mac 	"numGivenUp AC 2" 	0
scalar scenarioPRJP1.node[52].wlan.mac 	"numGivenUp AC 3" 	0
scalar scenarioPRJP1.node[52].wlan.mac 	"numDropped AC 0" 	44
scalar scenarioPRJP1.node[52].wlan.mac 	"numDropped AC 1" 	0
scalar scenarioPRJP1.node[52].wlan.mac 	"numDropped AC 2" 	0
scalar scenarioPRJP1.node[52].wlan.mac 	"numDropped AC 3" 	0
scalar scenarioPRJP1.node[52].wlan.mac 	rcvdPkFromLL:count 	94532
attr interpolationmode  none
attr source  packetReceivedFromLower
attr title  "packets received from lower layer, count"
scalar scenarioPRJP1.node[52].wlan.mac 	rcvdPkFromLL:sum(packetBytes) 	17378824
attr interpolationmode  none
attr source  packetReceivedFromLower
attr title  "packets received from lower layer, sum(packetBytes)"
scalar scenarioPRJP1.node[52].wlan.mac 	sentDownPk:count 	13532
attr interpolationmode  none
attr source  packetSentToLower
attr title  "packets sent to lower layer, count"
scalar scenarioPRJP1.node[52].wlan.mac 	sentDownPk:sum(packetBytes) 	2362770
attr interpolationmode  none
attr source  packetSentToLower
attr title  "packets sent to lower layer, sum(packetBytes)"
scalar scenarioPRJP1.node[52].wlan.mac 	rcvdPkFromHL:count 	7417
attr interpolationmode  none
attr source  packetReceivedFromUpper
attr title  "packets received from higher layer, count"
scalar scenarioPRJP1.node[52].wlan.mac 	rcvdPkFromHL:sum(packetBytes) 	912952
attr interpolationmode  none
attr source  packetReceivedFromUpper
attr title  "packets received from higher layer, sum(packetBytes)"
scalar scenarioPRJP1.node[52].wlan.mac 	passedUpPk:count 	31566
attr interpolationmode  none
attr source  packetSentToUpper
attr title  "packets passed to higher layer, count"
scalar scenarioPRJP1.node[52].wlan.mac 	passedUpPk:sum(packetBytes) 	2494112
attr interpolationmode  none
attr source  packetSentToUpper
attr title  "packets passed to higher layer, sum(packetBytes)"
statistic scenarioPRJP1.node[52].wlan.radio 	radioChannel:histogram
field count 1
field mean 3
field stddev -nan
field sum 3
field sqrsum 9
field min 3
field max 3
attr interpolationmode  sample-hold
attr source  radioChannelChanged
attr title  "Radio channel, histogram"
bin	-INF	0
bin	2	0
bin	3	1
bin	4	0
scalar scenarioPRJP1.node[52].wlan.radio 	transmissionState:count 	54128
attr interpolationmode  sample-hold
attr source  transmissionStateChanged
attr title  "Radio transmission state, count"
scalar scenarioPRJP1.node[52].wlan.radio 	receptionState:count 	220581
attr interpolationmode  sample-hold
attr source  receptionStateChanged
attr title  "Radio reception state, count"
scalar scenarioPRJP1.node[52].wlan.radio 	radioMode:count 	27066
attr interpolationmode  sample-hold
attr source  radioModeChanged
attr title  "Radio mode, count"
statistic scenarioPRJP1.node[52].wlan.radio 	symbolErrorRate:histogram
field count 0
field mean -nan
field stddev -nan
field sum 0
field sqrsum 0
field min -nan
field max -nan
attr source  symbolErrorRate
attr title  "Symbol error rate, histogram"
bin	-INF	0
bin	-0.5	0
bin	-0.46666666666667	0
bin	-0.43333333333333	0
bin	-0.4	0
bin	-0.36666666666667	0
bin	-0.33333333333333	0
bin	-0.3	0
bin	-0.26666666666667	0
bin	-0.23333333333333	0
bin	-0.2	0
bin	-0.16666666666667	0
bin	-0.13333333333333	0
bin	-0.1	0
bin	-0.066666666666667	0
bin	-0.033333333333333	0
bin	0	0
bin	0.033333333333333	0
bin	0.066666666666667	0
bin	0.1	0
bin	0.13333333333333	0
bin	0.16666666666667	0
bin	0.2	0
bin	0.23333333333333	0
bin	0.26666666666667	0
bin	0.3	0
bin	0.33333333333333	0
bin	0.36666666666667	0
bin	0.4	0
bin	0.43333333333333	0
bin	0.46666666666667	0
bin	0.5	0
statistic scenarioPRJP1.node[52].wlan.radio 	bitErrorRate:histogram
field count 0
field mean -nan
field stddev -nan
field sum 0
field sqrsum 0
field min -nan
field max -nan
attr source  bitErrorRate
attr title  "Bit error rate, histogram"
bin	-INF	0
bin	-0.5	0
bin	-0.46666666666667	0
bin	-0.43333333333333	0
bin	-0.4	0
bin	-0.36666666666667	0
bin	-0.33333333333333	0
bin	-0.3	0
bin	-0.26666666666667	0
bin	-0.23333333333333	0
bin	-0.2	0
bin	-0.16666666666667	0
bin	-0.13333333333333	0
bin	-0.1	0
bin	-0.066666666666667	0
bin	-0.033333333333333	0
bin	0	0
bin	0.033333333333333	0
bin	0.066666666666667	0
bin	0.1	0
bin	0.13333333333333	0
bin	0.16666666666667	0
bin	0.2	0
bin	0.23333333333333	0
bin	0.26666666666667	0
bin	0.3	0
bin	0.33333333333333	0
bin	0.36666666666667	0
bin	0.4	0
bin	0.43333333333333	0
bin	0.46666666666667	0
bin	0.5	0
statistic scenarioPRJP1.node[52].wlan.radio 	packetErrorRate:histogram
field count 94532
field mean 0.1810567104546
field stddev 0.37677243090485
field sum 17115.652952695
field sqrsum 16518.284915503
field min 0
field max 1
attr source  packetErrorRate
attr title  "Packet error rate, histogram"
bin	-INF	0
bin	-0.5	0
bin	-0.46666666666667	0
bin	-0.43333333333333	0
bin	-0.4	0
bin	-0.36666666666667	0
bin	-0.33333333333333	0
bin	-0.3	0
bin	-0.26666666666667	0
bin	-0.23333333333333	0
bin	-0.2	0
bin	-0.16666666666667	0
bin	-0.13333333333333	0
bin	-0.1	0
bin	-0.066666666666667	0
bin	-0.033333333333333	0
bin	0	75016
bin	0.033333333333333	616
bin	0.066666666666667	329
bin	0.1	258
bin	0.13333333333333	218
bin	0.16666666666667	188
bin	0.2	160
bin	0.23333333333333	116
bin	0.26666666666667	119
bin	0.3	121
bin	0.33333333333333	102
bin	0.36666666666667	87
bin	0.4	103
bin	0.43333333333333	99
bin	0.46666666666667	60
bin	0.5	16940
statistic scenarioPRJP1.node[52].wlan.radio 	minSNIR:histogram
field count 94532
field mean 3029.072144539
field stddev 25969.079444323
field sum 286344247.96756
field sqrsum 64618410310006
field min 0.00017794929971803
field max 753239.71923443
attr source  minSNIR
attr title  "Min SNIR, histogram"
bin	-INF	0
bin	-1222.6990599637	0
bin	-1058.4615366832	0
bin	-894.22401340266	0
bin	-729.98649012214	0
bin	-565.74896684163	0
bin	-401.51144356111	0
bin	-237.27392028059	0
bin	-73.036397000072	58219
bin	91.201126280446	9334
bin	255.43864956096	3138
bin	419.67617284148	1767
bin	583.913696122	1693
bin	748.15121940252	1707
bin	912.38874268304	1508
bin	1076.6262659636	1253
bin	1240.8637892441	1110
bin	1405.1013125246	909
bin	1569.3388358051	806
bin	1733.5763590856	670
bin	1897.8138823661	588
bin	2062.0514056467	435
bin	2226.2889289272	394
bin	2390.5264522077	394
bin	2554.7639754882	393
bin	2719.0014987687	353
bin	2883.2390220493	371
bin	3047.4765453298	320
bin	3211.7140686103	271
bin	3375.9515918908	316
bin	3540.1891151713	299
bin	3704.4266384518	8284
scalar scenarioPRJP1.node[52].lo0.lo 	droppedPkBitError:count 	0
attr interpolationmode  none
attr source  dropPkBitError
attr title  "packets dropped/bit error, count"
scalar scenarioPRJP1.node[52].lo0.lo 	droppedPkBitError:sum(packetBytes) 	0
attr interpolationmode  none
attr source  dropPkBitError
attr title  "packets dropped/bit error, sum(packetBytes)"
scalar scenarioPRJP1.node[52].lo0.lo 	rcvdPkFromHL:count 	19
attr interpolationmode  none
attr source  packetReceivedFromUpper
attr title  "packets received from higher layer, count"
scalar scenarioPRJP1.node[52].lo0.lo 	rcvdPkFromHL:sum(packetBytes) 	9880
attr interpolationmode  none
attr source  packetReceivedFromUpper
attr title  "packets received from higher layer, sum(packetBytes)"
scalar scenarioPRJP1.node[52].lo0.lo 	passedUpPk:count 	19
attr interpolationmode  none
attr source  packetSentToUpper
attr title  "packets passed to higher layer, count"
scalar scenarioPRJP1.node[52].lo0.lo 	passedUpPk:sum(packetBytes) 	9880
attr interpolationmode  none
attr source  packetSentToUpper
attr title  "packets passed to higher layer, sum(packetBytes)"
scalar scenarioPRJP1.node[31].app 	"Total sent" 	610
scalar scenarioPRJP1.node[31].app 	"Total received" 	34
scalar scenarioPRJP1.node[31].app 	"Total deleted" 	4
scalar scenarioPRJP1.node[31].app 	dropPk:count 	4
attr interpolationmode  none
attr source  dropPk
attr title  "packets dropped, count"
scalar scenarioPRJP1.node[31].app 	dropPk:sum(packetBytes) 	2048
attr interpolationmode  none
attr source  dropPk
attr title  "packets dropped, sum(packetBytes)"
scalar scenarioPRJP1.node[31].app 	outOfOrderPk:count 	1
attr interpolationmode  none
attr source  outOfOrderPk
attr title  "packets received out of order, count"
scalar scenarioPRJP1.node[31].app 	outOfOrderPk:sum(packetBytes) 	512
attr interpolationmode  none
attr source  outOfOrderPk
attr title  "packets received out of order, sum(packetBytes)"
scalar scenarioPRJP1.node[31].app 	rcvdPk:count 	34
attr interpolationmode  none
attr source  rcvdPk
attr title  "packets received, count"
scalar scenarioPRJP1.node[31].app 	rcvdPk:sum(packetBytes) 	17408
attr interpolationmode  none
attr source  rcvdPk
attr title  "packets received, sum(packetBytes)"
statistic scenarioPRJP1.node[31].app 	endToEndDelay:histogram
field count 34
field mean 2.3003391252239
field stddev 4.4541664069275
field sum 78.211530257611
field sqrsum 834.61978965504
field min 0.002037094961
field max 17.059132930985
attr interpolationmode  none
attr source  messageAge(rcvdPk)
attr title  "delay, histogram"
attr unit  s
bin	-INF	0
bin	-8.526510823051	0
bin	-7.3893711006494	0
bin	-6.2522313782478	0
bin	-5.1150916558462	0
bin	-3.9779519334446	0
bin	-2.840812211043	0
bin	-1.7036724886414	0
bin	-0.5665327662398	21
bin	0.5706069561618	3
bin	1.7077466785634	2
bin	2.844886400965	1
bin	3.9820261233666	3
bin	5.1191658457682	0
bin	6.2563055681698	1
bin	7.3934452905714	0
bin	8.530585012973	0
bin	9.6677247353746	0
bin	10.804864457776	0
bin	11.942004180178	1
bin	13.079143902579	0
bin	14.216283624981	0
bin	15.353423347383	1
bin	16.490563069784	1
bin	17.627702792186	0
bin	18.764842514587	0
bin	19.901982236989	0
bin	21.039121959391	0
bin	22.176261681792	0
bin	23.313401404194	0
bin	24.450541126595	0
bin	25.587680848997	0
scalar scenarioPRJP1.node[31].app 	sentPk:count 	610
attr interpolationmode  none
attr source  sentPk
attr title  "packets sent, count"
scalar scenarioPRJP1.node[31].app 	sentPk:sum(packetBytes) 	312320
attr interpolationmode  none
attr source  sentPk
attr title  "packets sent, sum(packetBytes)"
scalar scenarioPRJP1.node[31].udp 	droppedPkBadChecksum:count 	0
attr interpolationmode  none
attr title  "packets dropped (checksum error), count"
scalar scenarioPRJP1.node[31].udp 	droppedPkWrongPort:count 	0
attr interpolationmode  none
attr title  "packets dropped (wrong port), count"
scalar scenarioPRJP1.node[31].udp 	passedUpPk:count 	39
attr interpolationmode  none
attr title  "packets passed up, count"
scalar scenarioPRJP1.node[31].udp 	rcvdPk:count 	39
attr interpolationmode  none
attr source  rcvdPk
attr title  "packets received, count"
scalar scenarioPRJP1.node[31].udp 	rcvdPk:sum(packetBytes) 	20280
attr interpolationmode  none
attr source  rcvdPk
attr title  "packets received, sum(packetBytes)"
scalar scenarioPRJP1.node[31].udp 	sentPk:count 	610
attr interpolationmode  none
attr source  sentPk
attr title  "packets sent, count"
scalar scenarioPRJP1.node[31].udp 	sentPk:sum(packetBytes) 	317200
attr interpolationmode  none
attr source  sentPk
attr title  "packets sent, sum(packetBytes)"
scalar scenarioPRJP1.node[31].networkLayer.arp 	failedARPResolution:count 	5
attr title  "ARP failed resolutions, count"
scalar scenarioPRJP1.node[31].networkLayer.arp 	completedARPResolution:count 	233
attr title  "ARP completed resolutions, count"
scalar scenarioPRJP1.node[31].networkLayer.arp 	initiatedARPResolution:count 	29
attr title  "ARP initiated resolutions, count"
scalar scenarioPRJP1.node[31].networkLayer.arp 	sentReply:count 	11
attr title  "ARP replies sent, count"
scalar scenarioPRJP1.node[31].networkLayer.arp 	sentReq:count 	52
attr title  "ARP request sent, count"
scalar scenarioPRJP1.node[31].mobility 	startTime 	2.5
scalar scenarioPRJP1.node[31].mobility 	totalTime 	245.1
scalar scenarioPRJP1.node[31].mobility 	stopTime 	247.7
scalar scenarioPRJP1.node[31].mobility 	minSpeed 	2.476918475168e-13
scalar scenarioPRJP1.node[31].mobility 	maxSpeed 	16.586717390635
scalar scenarioPRJP1.node[31].mobility 	totalDistance 	2234.1320231524
scalar scenarioPRJP1.node[31].mobility 	totalCO2Emission 	630.16834907739
scalar scenarioPRJP1.node[31].wlan.mgmt 	dataQueueLen:max 	20
attr interpolationmode  sample-hold
attr title  "data queue length, max"
scalar scenarioPRJP1.node[31].wlan.mgmt 	dataQueueLen:timeavg 	0.12247873326487
attr interpolationmode  sample-hold
attr title  "data queue length, timeavg"
scalar scenarioPRJP1.node[31].wlan.mgmt 	dropPkByQueue:count 	0
attr interpolationmode  none
attr source  dropPkByQueue
attr title  "packets dropped by queue, count"
scalar scenarioPRJP1.node[31].wlan.mgmt 	dropPkByQueue:sum(packetBytes) 	0
attr interpolationmode  none
attr source  dropPkByQueue
attr title  "packets dropped by queue, sum(packetBytes)"
scalar scenarioPRJP1.node[31].wlan.mac 	"number of received packets" 	4620
scalar scenarioPRJP1.node[31].wlan.mac 	"number of collisions" 	29136
scalar scenarioPRJP1.node[31].wlan.mac 	"number of internal collisions" 	0
scalar scenarioPRJP1.node[31].wlan.mac 	"number of retry for AC 0" 	11313
scalar scenarioPRJP1.node[31].wlan.mac 	"number of retry for AC 1" 	0
scalar scenarioPRJP1.node[31].wlan.mac 	"number of retry for AC 2" 	0
scalar scenarioPRJP1.node[31].wlan.mac 	"number of retry for AC 3" 	0
scalar scenarioPRJP1.node[31].wlan.mac 	"sent and received bits" 	8499552
scalar scenarioPRJP1.node[31].wlan.mac 	"sent packet within AC 0" 	2167
scalar scenarioPRJP1.node[31].wlan.mac 	"sent packet within AC 1" 	0
scalar scenarioPRJP1.node[31].wlan.mac 	"sent packet within AC 2" 	0
scalar scenarioPRJP1.node[31].wlan.mac 	"sent packet within AC 3" 	0
scalar scenarioPRJP1.node[31].wlan.mac 	"sent in TXOP " 	0
scalar scenarioPRJP1.node[31].wlan.mac 	"sentWithoutRetry AC 0" 	1867
scalar scenarioPRJP1.node[31].wlan.mac 	"sentWithoutRetry AC 1" 	0
scalar scenarioPRJP1.node[31].wlan.mac 	"sentWithoutRetry AC 2" 	0
scalar scenarioPRJP1.node[31].wlan.mac 	"sentWithoutRetry AC 3" 	0
scalar scenarioPRJP1.node[31].wlan.mac 	"numGivenUp AC 0" 	1774
scalar scenarioPRJP1.node[31].wlan.mac 	"numGivenUp AC 1" 	0
scalar scenarioPRJP1.node[31].wlan.mac 	"numGivenUp AC 2" 	0
scalar scenarioPRJP1.node[31].wlan.mac 	"numGivenUp AC 3" 	0
scalar scenarioPRJP1.node[31].wlan.mac 	"numDropped AC 0" 	319
scalar scenarioPRJP1.node[31].wlan.mac 	"numDropped AC 1" 	0
scalar scenarioPRJP1.node[31].wlan.mac 	"numDropped AC 2" 	0
scalar scenarioPRJP1.node[31].wlan.mac 	"numDropped AC 3" 	0
scalar scenarioPRJP1.node[31].wlan.mac 	rcvdPkFromLL:count 	127047
attr interpolationmode  none
attr source  packetReceivedFromLower
attr title  "packets received from lower layer, count"
scalar scenarioPRJP1.node[31].wlan.mac 	rcvdPkFromLL:sum(packetBytes) 	25648210
attr interpolationmode  none
attr source  packetReceivedFromLower
attr title  "packets received from lower layer, sum(packetBytes)"
scalar scenarioPRJP1.node[31].wlan.mac 	sentDownPk:count 	26847
attr interpolationmode  none
attr source  packetSentToLower
attr title  "packets sent to lower layer, count"
scalar scenarioPRJP1.node[31].wlan.mac 	sentDownPk:sum(packetBytes) 	6075864
attr interpolationmode  none
attr source  packetSentToLower
attr title  "packets sent to lower layer, sum(packetBytes)"
scalar scenarioPRJP1.node[31].wlan.mac 	rcvdPkFromHL:count 	11233
attr interpolationmode  none
attr source  packetReceivedFromUpper
attr title  "packets received from higher layer, count"
scalar scenarioPRJP1.node[31].wlan.mac 	rcvdPkFromHL:sum(packetBytes) 	1796180
attr interpolationmode  none
attr source  packetReceivedFromUpper
attr title  "packets received from higher layer, sum(packetBytes)"
scalar scenarioPRJP1.node[31].wlan.mac 	passedUpPk:count 	29053
attr interpolationmode  none
attr source  packetSentToUpper
attr title  "packets passed to higher layer, count"
scalar scenarioPRJP1.node[31].wlan.mac 	passedUpPk:sum(packetBytes) 	2731304
attr interpolationmode  none
attr source  packetSentToUpper
attr title  "packets passed to higher layer, sum(packetBytes)"
statistic scenarioPRJP1.node[31].wlan.radio 	radioChannel:histogram
field count 1
field mean 3
field stddev -nan
field sum 3
field sqrsum 9
field min 3
field max 3
attr interpolationmode  sample-hold
attr source  radioChannelChanged
attr title  "Radio channel, histogram"
bin	-INF	0
bin	2	0
bin	3	1
bin	4	0
scalar scenarioPRJP1.node[31].wlan.radio 	transmissionState:count 	107388
attr interpolationmode  sample-hold
attr source  transmissionStateChanged
attr title  "Radio transmission state, count"
scalar scenarioPRJP1.node[31].wlan.radio 	receptionState:count 	312849
attr interpolationmode  sample-hold
attr source  receptionStateChanged
attr title  "Radio reception state, count"
scalar scenarioPRJP1.node[31].wlan.radio 	radioMode:count 	53696
attr interpolationmode  sample-hold
attr source  radioModeChanged
attr title  "Radio mode, count"
statistic scenarioPRJP1.node[31].wlan.radio 	symbolErrorRate:histogram
field count 0
field mean -nan
field stddev -nan
field sum 0
field sqrsum 0
field min -nan
field max -nan
attr source  symbolErrorRate
attr title  "Symbol error rate, histogram"
bin	-INF	0
bin	-0.5	0
bin	-0.46666666666667	0
bin	-0.43333333333333	0
bin	-0.4	0
bin	-0.36666666666667	0
bin	-0.33333333333333	0
bin	-0.3	0
bin	-0.26666666666667	0
bin	-0.23333333333333	0
bin	-0.2	0
bin	-0.16666666666667	0
bin	-0.13333333333333	0
bin	-0.1	0
bin	-0.066666666666667	0
bin	-0.033333333333333	0
bin	0	0
bin	0.033333333333333	0
bin	0.066666666666667	0
bin	0.1	0
bin	0.13333333333333	0
bin	0.16666666666667	0
bin	0.2	0
bin	0.23333333333333	0
bin	0.26666666666667	0
bin	0.3	0
bin	0.33333333333333	0
bin	0.36666666666667	0
bin	0.4	0
bin	0.43333333333333	0
bin	0.46666666666667	0
bin	0.5	0
statistic scenarioPRJP1.node[31].wlan.radio 	bitErrorRate:histogram
field count 0
field mean -nan
field stddev -nan
field sum 0
field sqrsum 0
field min -nan
field max -nan
attr source  bitErrorRate
attr title  "Bit error rate, histogram"
bin	-INF	0
bin	-0.5	0
bin	-0.46666666666667	0
bin	-0.43333333333333	0
bin	-0.4	0
bin	-0.36666666666667	0
bin	-0.33333333333333	0
bin	-0.3	0
bin	-0.26666666666667	0
bin	-0.23333333333333	0
bin	-0.2	0
bin	-0.16666666666667	0
bin	-0.13333333333333	0
bin	-0.1	0
bin	-0.066666666666667	0
bin	-0.033333333333333	0
bin	0	0
bin	0.033333333333333	0
bin	0.066666666666667	0
bin	0.1	0
bin	0.13333333333333	0
bin	0.16666666666667	0
bin	0.2	0
bin	0.23333333333333	0
bin	0.26666666666667	0
bin	0.3	0
bin	0.33333333333333	0
bin	0.36666666666667	0
bin	0.4	0
bin	0.43333333333333	0
bin	0.46666666666667	0
bin	0.5	0
statistic scenarioPRJP1.node[31].wlan.radio 	packetErrorRate:histogram
field count 127047
field mean 0.20971953022191
field stddev 0.39738101579562
field sum 26644.237156103
field sqrsum 25649.863144172
field min 0
field max 1
attr source  packetErrorRate
attr title  "Packet error rate, histogram"
bin	-INF	0
bin	-0.5	0
bin	-0.43333333333333	0
bin	-0.36666666666667	0
bin	-0.3	0
bin	-0.23333333333333	0
bin	-0.16666666666667	0
bin	-0.1	0
bin	-0.033333333333333	96259
bin	0.033333333333333	1723
bin	0.1	846
bin	0.16666666666667	529
bin	0.23333333333333	433
bin	0.3	362
bin	0.36666666666667	299
bin	0.43333333333333	309
bin	0.5	236
bin	0.56666666666667	274
bin	0.63333333333333	217
bin	0.7	284
bin	0.76666666666667	289
bin	0.83333333333333	355
bin	0.9	513
bin	0.96666666666667	24119
bin	1.0333333333333	0
bin	1.1	0
bin	1.1666666666667	0
bin	1.2333333333333	0
bin	1.3	0
bin	1.3666666666667	0
bin	1.4333333333333	0
bin	1.5	0
statistic scenarioPRJP1.node[31].wlan.radio 	minSNIR:histogram
field count 127047
field mean 1567.014941282
field stddev 13032.477951268
field sum 199084547.24506
field sqrsum 21890157509149
field min 0.00016875769111542
field max 753239.71923443
attr source  minSNIR
attr title  "Min SNIR, histogram"
bin	-INF	0
bin	-198.49725382713	0
bin	-172.01649237822	0
bin	-145.53573092931	0
bin	-119.0549694804	0
bin	-92.574208031497	0
bin	-66.093446582588	0
bin	-39.61268513368	0
bin	-13.131923684772	65058
bin	13.348837764136	19954
bin	39.829599213044	6013
bin	66.310360661952	3307
bin	92.79112211086	2262
bin	119.27188355977	1735
bin	145.75264500868	1412
bin	172.23340645758	1097
bin	198.71416790649	940
bin	225.1949293554	729
bin	251.67569080431	667
bin	278.15645225322	579
bin	304.63721370213	511
bin	331.11797515103	427
bin	357.59873659994	403
bin	384.07949804885	358
bin	410.56025949776	327
bin	437.04102094667	290
bin	463.52178239557	285
bin	490.00254384448	293
bin	516.48330529339	262
bin	542.9640667423	248
bin	569.44482819121	272
bin	595.92558964012	19618
scalar scenarioPRJP1.node[31].lo0.lo 	droppedPkBitError:count 	0
attr interpolationmode  none
attr source  dropPkBitError
attr title  "packets dropped/bit error, count"
scalar scenarioPRJP1.node[31].lo0.lo 	droppedPkBitError:sum(packetBytes) 	0
attr interpolationmode  none
attr source  dropPkBitError
attr title  "packets dropped/bit error, sum(packetBytes)"
scalar scenarioPRJP1.node[31].lo0.lo 	rcvdPkFromHL:count 	39
attr interpolationmode  none
attr source  packetReceivedFromUpper
attr title  "packets received from higher layer, count"
scalar scenarioPRJP1.node[31].lo0.lo 	rcvdPkFromHL:sum(packetBytes) 	20280
attr interpolationmode  none
attr source  packetReceivedFromUpper
attr title  "packets received from higher layer, sum(packetBytes)"
scalar scenarioPRJP1.node[31].lo0.lo 	passedUpPk:count 	39
attr interpolationmode  none
attr source  packetSentToUpper
attr title  "packets passed to higher layer, count"
scalar scenarioPRJP1.node[31].lo0.lo 	passedUpPk:sum(packetBytes) 	20280
attr interpolationmode  none
attr source  packetSentToUpper
attr title  "packets passed to higher layer, sum(packetBytes)"
scalar scenarioPRJP1.node[84].app 	"Total sent" 	723
scalar scenarioPRJP1.node[84].app 	"Total received" 	47
scalar scenarioPRJP1.node[84].app 	"Total deleted" 	3
scalar scenarioPRJP1.node[84].app 	dropPk:count 	3
attr interpolationmode  none
attr source  dropPk
attr title  "packets dropped, count"
scalar scenarioPRJP1.node[84].app 	dropPk:sum(packetBytes) 	1536
attr interpolationmode  none
attr source  dropPk
attr title  "packets dropped, sum(packetBytes)"
scalar scenarioPRJP1.node[84].app 	outOfOrderPk:count 	22
attr interpolationmode  none
attr source  outOfOrderPk
attr title  "packets received out of order, count"
scalar scenarioPRJP1.node[84].app 	outOfOrderPk:sum(packetBytes) 	11264
attr interpolationmode  none
attr source  outOfOrderPk
attr title  "packets received out of order, sum(packetBytes)"
scalar scenarioPRJP1.node[84].app 	rcvdPk:count 	47
attr interpolationmode  none
attr source  rcvdPk
attr title  "packets received, count"
scalar scenarioPRJP1.node[84].app 	rcvdPk:sum(packetBytes) 	24064
attr interpolationmode  none
attr source  rcvdPk
attr title  "packets received, sum(packetBytes)"
statistic scenarioPRJP1.node[84].app 	endToEndDelay:histogram
field count 47
field mean 3.5379307464545
field stddev 4.8899998868223
field sum 166.28274508336
field sqrsum 1688.2533855189
field min 0.00215463281
field max 18.606072363499
attr interpolationmode  none
attr source  messageAge(rcvdPk)
attr title  "delay, histogram"
attr unit  s
bin	-INF	0
bin	-9.2998042325345	0
bin	-8.0595430504886	0
bin	-6.8192818684426	0
bin	-5.5790206863967	0
bin	-4.3387595043508	0
bin	-3.0984983223048	0
bin	-1.8582371402589	0
bin	-0.61797595821297	22
bin	0.62228522383297	7
bin	1.8625464058789	1
bin	3.1028075879248	3
bin	4.3430687699708	1
bin	5.5833299520167	0
bin	6.8235911340626	5
bin	8.0638523161086	2
bin	9.3041134981545	0
bin	10.5443746802	2
bin	11.784635862246	1
bin	13.024897044292	1
bin	14.265158226338	1
bin	15.505419408384	0
bin	16.74568059043	0
bin	17.985941772476	1
bin	19.226202954522	0
bin	20.466464136568	0
bin	21.706725318614	0
bin	22.94698650066	0
bin	24.187247682706	0
bin	25.427508864752	0
bin	26.667770046798	0
bin	27.908031228843	0
scalar scenarioPRJP1.node[84].app 	sentPk:count 	723
attr interpolationmode  none
attr source  sentPk
attr title  "packets sent, count"
scalar scenarioPRJP1.node[84].app 	sentPk:sum(packetBytes) 	370176
attr interpolationmode  none
attr source  sentPk
attr title  "packets sent, sum(packetBytes)"
scalar scenarioPRJP1.node[84].udp 	droppedPkBadChecksum:count 	0
attr interpolationmode  none
attr title  "packets dropped (checksum error), count"
scalar scenarioPRJP1.node[84].udp 	droppedPkWrongPort:count 	0
attr interpolationmode  none
attr title  "packets dropped (wrong port), count"
scalar scenarioPRJP1.node[84].udp 	passedUpPk:count 	72
attr interpolationmode  none
attr title  "packets passed up, count"
scalar scenarioPRJP1.node[84].udp 	rcvdPk:count 	72
attr interpolationmode  none
attr source  rcvdPk
attr title  "packets received, count"
scalar scenarioPRJP1.node[84].udp 	rcvdPk:sum(packetBytes) 	37440
attr interpolationmode  none
attr source  rcvdPk
attr title  "packets received, sum(packetBytes)"
scalar scenarioPRJP1.node[84].udp 	sentPk:count 	723
attr interpolationmode  none
attr source  sentPk
attr title  "packets sent, count"
scalar scenarioPRJP1.node[84].udp 	sentPk:sum(packetBytes) 	375960
attr interpolationmode  none
attr source  sentPk
attr title  "packets sent, sum(packetBytes)"
scalar scenarioPRJP1.node[84].networkLayer.arp 	failedARPResolution:count 	8
attr title  "ARP failed resolutions, count"
scalar scenarioPRJP1.node[84].networkLayer.arp 	completedARPResolution:count 	286
attr title  "ARP completed resolutions, count"
scalar scenarioPRJP1.node[84].networkLayer.arp 	initiatedARPResolution:count 	33
attr title  "ARP initiated resolutions, count"
scalar scenarioPRJP1.node[84].networkLayer.arp 	sentReply:count 	16
attr title  "ARP replies sent, count"
scalar scenarioPRJP1.node[84].networkLayer.arp 	sentReq:count 	63
attr title  "ARP request sent, count"
scalar scenarioPRJP1.node[84].mobility 	startTime 	9.7
scalar scenarioPRJP1.node[84].mobility 	totalTime 	273.8
scalar scenarioPRJP1.node[84].mobility 	stopTime 	283.6
scalar scenarioPRJP1.node[84].mobility 	minSpeed 	2.4755249643096e-13
scalar scenarioPRJP1.node[84].mobility 	maxSpeed 	17.59060787096
scalar scenarioPRJP1.node[84].mobility 	totalDistance 	2205.971196268
scalar scenarioPRJP1.node[84].mobility 	totalCO2Emission 	673.44006086583
scalar scenarioPRJP1.node[84].wlan.mgmt 	dataQueueLen:max 	51
attr interpolationmode  sample-hold
attr title  "data queue length, max"
scalar scenarioPRJP1.node[84].wlan.mgmt 	dataQueueLen:timeavg 	0.31525452302954
attr interpolationmode  sample-hold
attr title  "data queue length, timeavg"
scalar scenarioPRJP1.node[84].wlan.mgmt 	dropPkByQueue:count 	0
attr interpolationmode  none
attr source  dropPkByQueue
attr title  "packets dropped by queue, count"
scalar scenarioPRJP1.node[84].wlan.mgmt 	dropPkByQueue:sum(packetBytes) 	0
attr interpolationmode  none
attr source  dropPkByQueue
attr title  "packets dropped by queue, sum(packetBytes)"
scalar scenarioPRJP1.node[84].wlan.mac 	"number of received packets" 	4480
scalar scenarioPRJP1.node[84].wlan.mac 	"number of collisions" 	32650
scalar scenarioPRJP1.node[84].wlan.mac 	"number of internal collisions" 	0
scalar scenarioPRJP1.node[84].wlan.mac 	"number of retry for AC 0" 	10478
scalar scenarioPRJP1.node[84].wlan.mac 	"number of retry for AC 1" 	0
scalar scenarioPRJP1.node[84].wlan.mac 	"number of retry for AC 2" 	0
scalar scenarioPRJP1.node[84].wlan.mac 	"number of retry for AC 3" 	0
scalar scenarioPRJP1.node[84].wlan.mac 	"sent and received bits" 	9108352
scalar scenarioPRJP1.node[84].wlan.mac 	"sent packet within AC 0" 	2395
scalar scenarioPRJP1.node[84].wlan.mac 	"sent packet within AC 1" 	0
scalar scenarioPRJP1.node[84].wlan.mac 	"sent packet within AC 2" 	0
scalar scenarioPRJP1.node[84].wlan.mac 	"sent packet within AC 3" 	0
scalar scenarioPRJP1.node[84].wlan.mac 	"sent in TXOP " 	0
scalar scenarioPRJP1.node[84].wlan.mac 	"sentWithoutRetry AC 0" 	2145
scalar scenarioPRJP1.node[84].wlan.mac 	"sentWithoutRetry AC 1" 	0
scalar scenarioPRJP1.node[84].wlan.mac 	"sentWithoutRetry AC 2" 	0
scalar scenarioPRJP1.node[84].wlan.mac 	"sentWithoutRetry AC 3" 	0
scalar scenarioPRJP1.node[84].wlan.mac 	"numGivenUp AC 0" 	1659
scalar scenarioPRJP1.node[84].wlan.mac 	"numGivenUp AC 1" 	0
scalar scenarioPRJP1.node[84].wlan.mac 	"numGivenUp AC 2" 	0
scalar scenarioPRJP1.node[84].wlan.mac 	"numGivenUp AC 3" 	0
scalar scenarioPRJP1.node[84].wlan.mac 	"numDropped AC 0" 	312
scalar scenarioPRJP1.node[84].wlan.mac 	"numDropped AC 1" 	0
scalar scenarioPRJP1.node[84].wlan.mac 	"numDropped AC 2" 	0
scalar scenarioPRJP1.node[84].wlan.mac 	"numDropped AC 3" 	0
scalar scenarioPRJP1.node[84].wlan.mac 	rcvdPkFromLL:count 	148516
attr interpolationmode  none
attr source  packetReceivedFromLower
attr title  "packets received from lower layer, count"
scalar scenarioPRJP1.node[84].wlan.mac 	rcvdPkFromLL:sum(packetBytes) 	31527970
attr interpolationmode  none
attr source  packetReceivedFromLower
attr title  "packets received from lower layer, sum(packetBytes)"
scalar scenarioPRJP1.node[84].wlan.mac 	sentDownPk:count 	26001
attr interpolationmode  none
attr source  packetSentToLower
attr title  "packets sent to lower layer, count"
scalar scenarioPRJP1.node[84].wlan.mac 	sentDownPk:sum(packetBytes) 	5483720
attr interpolationmode  none
attr source  packetSentToLower
attr title  "packets sent to lower layer, sum(packetBytes)"
scalar scenarioPRJP1.node[84].wlan.mac 	rcvdPkFromHL:count 	11355
attr interpolationmode  none
attr source  packetReceivedFromUpper
attr title  "packets received from higher layer, count"
scalar scenarioPRJP1.node[84].wlan.mac 	rcvdPkFromHL:sum(packetBytes) 	1776288
attr interpolationmode  none
attr source  packetReceivedFromUpper
attr title  "packets received from higher layer, sum(packetBytes)"
scalar scenarioPRJP1.node[84].wlan.mac 	passedUpPk:count 	29094
attr interpolationmode  none
attr source  packetSentToUpper
attr title  "packets passed to higher layer, count"
scalar scenarioPRJP1.node[84].wlan.mac 	passedUpPk:sum(packetBytes) 	2667064
attr interpolationmode  none
attr source  packetSentToUpper
attr title  "packets passed to higher layer, sum(packetBytes)"
statistic scenarioPRJP1.node[84].wlan.radio 	radioChannel:histogram
field count 1
field mean 3
field stddev -nan
field sum 3
field sqrsum 9
field min 3
field max 3
attr interpolationmode  sample-hold
attr source  radioChannelChanged
attr title  "Radio channel, histogram"
bin	-INF	0
bin	2	0
bin	3	1
bin	4	0
scalar scenarioPRJP1.node[84].wlan.radio 	transmissionState:count 	104004
attr interpolationmode  sample-hold
attr source  transmissionStateChanged
attr title  "Radio transmission state, count"
scalar scenarioPRJP1.node[84].wlan.radio 	receptionState:count 	355303
attr interpolationmode  sample-hold
attr source  receptionStateChanged
attr title  "Radio reception state, count"
scalar scenarioPRJP1.node[84].wlan.radio 	radioMode:count 	52004
attr interpolationmode  sample-hold
attr source  radioModeChanged
attr title  "Radio mode, count"
statistic scenarioPRJP1.node[84].wlan.radio 	symbolErrorRate:histogram
field count 0
field mean -nan
field stddev -nan
field sum 0
field sqrsum 0
[...]
statistic scenarioPRJP1.node[72].wlan.radio 	radioChannel:histogram
field count 1
field mean 3
field stddev -nan
field sum 3
field sqrsum 9
field min 3
field max 3
attr interpolationmode  sample-hold
attr source  radioChannelChanged
attr title  "Radio channel, histogram"
bin	-INF	0
bin	2	0
bin	3	1
bin	4	0
scalar scenarioPRJP1.node[72].wlan.radio 	transmissionState:count 	238204
attr interpolationmode  sample-hold
attr source  transmissionStateChanged
attr title  "Radio transmission state, count"
scalar scenarioPRJP1.node[72].wlan.radio 	receptionState:count 	799315
attr interpolationmode  sample-hold
attr source  receptionStateChanged
attr title  "Radio reception state, count"
scalar scenarioPRJP1.node[72].wlan.radio 	radioMode:count 	119104
attr interpolationmode  sample-hold
attr source  radioModeChanged
attr title  "Radio mode, count"
statistic scenarioPRJP1.node[72].wlan.radio 	symbolErrorRate:histogram
field count 0
field mean -nan
field stddev -nan
field sum 0
field sqrsum 0
field min -nan
field max -nan
attr source  symbolErrorRate
attr title  "Symbol error rate, histogram"
bin	-INF	0
bin	-0.5	0
bin	-0.46666666666667	0
bin	-0.43333333333333	0
bin	-0.4	0
bin	-0.36666666666667	0
bin	-0.33333333333333	0
bin	-0.3	0
bin	-0.26666666666667	0
bin	-0.23333333333333	0
bin	-0.2	0
bin	-0.16666666666667	0
bin	-0.13333333333333	0
bin	-0.1	0
bin	-0.066666666666667	0
bin	-0.033333333333333	0
bin	0	0
bin	0.033333333333333	0
bin	0.066666666666667	0
bin	0.1	0
bin	0.13333333333333	0
bin	0.16666666666667	0
bin	0.2	0
bin	0.23333333333333	0
bin	0.26666666666667	0
bin	0.3	0
bin	0.33333333333333	0
bin	0.36666666666667	0
bin	0.4	0
bin	0.43333333333333	0
bin	0.46666666666667	0
bin	0.5	0
statistic scenarioPRJP1.node[72].wlan.radio 	bitErrorRate:histogram
field count 0
field mean -nan
field stddev -nan
field sum 0
field sqrsum 0
field min -nan
field max -nan
attr source  bitErrorRate
attr title  "Bit error rate, histogram"
bin	-INF	0
bin	-0.5	0
bin	-0.46666666666667	0
bin	-0.43333333333333	0
bin	-0.4	0
bin	-0.36666666666667	0
bin	-0.33333333333333	0
bin	-0.3	0
bin	-0.26666666666667	0
bin	-0.23333333333333	0
bin	-0.2	0
bin	-0.16666666666667	0
bin	-0.13333333333333	0
bin	-0.1	0
bin	-0.066666666666667	0
bin	-0.033333333333333	0
bin	0	0
bin	0.033333333333333	0
bin	0.066666666666667	0
bin	0.1	0
bin	0.13333333333333	0
bin	0.16666666666667	0
bin	0.2	0
bin	0.23333333333333	0
bin	0.26666666666667	0
bin	0.3	0
bin	0.33333333333333	0
bin	0.36666666666667	0
bin	0.4	0
bin	0.43333333333333	0
bin	0.46666666666667	0
bin	0.5	0
statistic scenarioPRJP1.node[72].wlan.radio 	packetErrorRate:histogram
field count 327393
field mean 0.20487646910441
field stddev 0.39487961246173
field sum 67075.121849499
field sqrsum 64792.318679844
field min 0
field max 1
attr source  packetErrorRate
attr title  "Packet error rate, histogram"
bin	-INF	0
bin	-2.1075007961002e-08	0
bin	-1.8265006899535e-08	0
bin	-1.5455005838068e-08	0
bin	-1.2645004776601e-08	0
bin	-9.8350037151344e-09	0
bin	-7.0250026536674e-09	0
bin	-4.2150015922005e-09	0
bin	-1.4050005307335e-09	207865
bin	1.4050005307335e-09	2009
bin	4.2150015922005e-09	952
bin	7.0250026536674e-09	663
bin	9.8350037151344e-09	514
bin	1.2645004776601e-08	384
bin	1.5455005838068e-08	304
bin	1.8265006899535e-08	239
bin	2.1075007961002e-08	237
bin	2.3885009022469e-08	224
bin	2.6695010083936e-08	197
bin	2.9505011145403e-08	171
bin	3.231501220687e-08	148
bin	3.5125013268337e-08	167
bin	3.7935014329804e-08	123
bin	4.0745015391271e-08	130
bin	4.3555016452738e-08	132
bin	4.6365017514205e-08	128
bin	4.9175018575672e-08	97
bin	5.1985019637139e-08	121
bin	5.4795020698606e-08	115
bin	5.7605021760073e-08	107
bin	6.041502282154e-08	96
bin	6.3225023883007e-08	112270
statistic scenarioPRJP1.node[72].wlan.radio 	minSNIR:histogram
field count 327393
field mean 2409.2575192581
field stddev 25829.451584499
field sum 788774047.00248
field sqrsum 2.2032339286085e+14
field min 0.00016798316263786
field max 1048581.1489931
attr source  minSNIR
attr title  "Min SNIR, histogram"
bin	-INF	0
bin	-1300.5111528995	0
bin	-1126.5051145507	0
bin	-952.49907620195	0
bin	-778.49303785317	0
bin	-604.48699950439	0
bin	-430.48096115562	0
bin	-256.47492280684	0
bin	-82.468884458064	220598
bin	91.537153890713	38340
bin	265.54319223949	12599
bin	439.54923058827	6558
bin	613.55526893704	4813
bin	787.56130728582	4058
bin	961.5673456346	3346
bin	1135.5733839834	2641
bin	1309.5794223322	2388
bin	1483.5854606809	1876
bin	1657.5914990297	1638
bin	1831.5975373785	1447
bin	2005.6035757273	1214
bin	2179.609614076	1114
bin	2353.6156524248	973
bin	2527.6216907736	839
bin	2701.6277291224	795
bin	2875.6337674711	798
bin	3049.6398058199	689
bin	3223.6458441687	649
bin	3397.6518825175	670
bin	3571.6579208662	599
bin	3745.663959215	587
bin	3919.6699975638	18164
scalar scenarioPRJP1.node[72].lo0.lo 	droppedPkBitError:count 	0
attr interpolationmode  none
attr source  dropPkBitError
attr title  "packets dropped/bit error, count"
scalar scenarioPRJP1.node[72].lo0.lo 	droppedPkBitError:sum(packetBytes) 	0
attr interpolationmode  none
attr source  dropPkBitError
attr title  "packets dropped/bit error, sum(packetBytes)"
scalar scenarioPRJP1.node[72].lo0.lo 	rcvdPkFromHL:count 	117
attr interpolationmode  none
attr source  packetReceivedFromUpper
attr title  "packets received from higher layer, count"
scalar scenarioPRJP1.node[72].lo0.lo 	rcvdPkFromHL:sum(packetBytes) 	60840
attr interpolationmode  none
attr source  packetReceivedFromUpper
attr title  "packets received from higher layer, sum(packetBytes)"
scalar scenarioPRJP1.node[72].lo0.lo 	passedUpPk:count 	117
attr interpolationmode  none
attr source  packetSentToUpper
attr title  "packets passed to higher layer, count"
scalar scenarioPRJP1.node[72].lo0.lo 	passedUpPk:sum(packetBytes) 	60840
attr interpolationmode  none
attr source  packetSentToUpper
attr title  "packets passed to higher layer, sum(packetBytes)"
scalar scenarioPRJP1.node[91].app 	"Total sent" 	2616
scalar scenarioPRJP1.node[91].app 	"Total received" 	112
scalar scenarioPRJP1.node[91].app 	"Total deleted" 	4
scalar scenarioPRJP1.node[91].app 	dropPk:count 	4
attr interpolationmode  none
attr source  dropPk
attr title  "packets dropped, count"
scalar scenarioPRJP1.node[91].app 	dropPk:sum(packetBytes) 	2048
attr interpolationmode  none
attr source  dropPk
attr title  "packets dropped, sum(packetBytes)"
scalar scenarioPRJP1.node[91].app 	outOfOrderPk:count 	13
attr interpolationmode  none
attr source  outOfOrderPk
attr title  "packets received out of order, count"
scalar scenarioPRJP1.node[91].app 	outOfOrderPk:sum(packetBytes) 	6656
attr interpolationmode  none
attr source  outOfOrderPk
attr title  "packets received out of order, sum(packetBytes)"
scalar scenarioPRJP1.node[91].app 	rcvdPk:count 	112
attr interpolationmode  none
attr source  rcvdPk
attr title  "packets received, count"
scalar scenarioPRJP1.node[91].app 	rcvdPk:sum(packetBytes) 	57344
attr interpolationmode  none
attr source  rcvdPk
attr title  "packets received, sum(packetBytes)"
statistic scenarioPRJP1.node[91].app 	endToEndDelay:histogram
field count 112
field mean 1.5332587797436
field stddev 3.3173299348234
field sum 171.72498333128
field sqrsum 1484.8180849027
field min 0.001003192287
field max 17.872673815083
attr interpolationmode  none
attr source  messageAge(rcvdPk)
attr title  "delay, histogram"
attr unit  s
bin	-INF	0
bin	-8.934832119111	0
bin	-7.7433874109246	0
bin	-6.5519427027382	0
bin	-5.3604979945518	0
bin	-4.1690532863654	0
bin	-2.977608578179	0
bin	-1.7861638699926	0
bin	-0.5947191618062	75
bin	0.5967255463802	16
bin	1.7881702545666	8
bin	2.979614962753	1
bin	4.1710596709394	2
bin	5.3625043791258	0
bin	6.5539490873122	3
bin	7.7453937954986	1
bin	8.936838503685	0
bin	10.128283211871	3
bin	11.319727920058	0
bin	12.511172628244	0
bin	13.702617336431	2
bin	14.894062044617	0
bin	16.085506752803	0
bin	17.27695146099	1
bin	18.468396169176	0
bin	19.659840877363	0
bin	20.851285585549	0
bin	22.042730293735	0
bin	23.234175001922	0
bin	24.425619710108	0
bin	25.617064418295	0
bin	26.808509126481	0
scalar scenarioPRJP1.node[91].app 	sentPk:count 	2616
attr interpolationmode  none
attr source  sentPk
attr title  "packets sent, count"
scalar scenarioPRJP1.node[91].app 	sentPk:sum(packetBytes) 	1339392
attr interpolationmode  none
attr source  sentPk
attr title  "packets sent, sum(packetBytes)"
scalar scenarioPRJP1.node[91].udp 	droppedPkBadChecksum:count 	0
attr interpolationmode  none
attr title  "packets dropped (checksum error), count"
scalar scenarioPRJP1.node[91].udp 	droppedPkWrongPort:count 	0
attr interpolationmode  none
attr title  "packets dropped (wrong port), count"
scalar scenarioPRJP1.node[91].udp 	passedUpPk:count 	129
attr interpolationmode  none
attr title  "packets passed up, count"
scalar scenarioPRJP1.node[91].udp 	rcvdPk:count 	129
attr interpolationmode  none
attr source  rcvdPk
attr title  "packets received, count"
scalar scenarioPRJP1.node[91].udp 	rcvdPk:sum(packetBytes) 	67080
attr interpolationmode  none
attr source  rcvdPk
attr title  "packets received, sum(packetBytes)"
scalar scenarioPRJP1.node[91].udp 	sentPk:count 	2616
attr interpolationmode  none
attr source  sentPk
attr title  "packets sent, count"
scalar scenarioPRJP1.node[91].udp 	sentPk:sum(packetBytes) 	1360320
attr interpolationmode  none
attr source  sentPk
attr title  "packets sent, sum(packetBytes)"
scalar scenarioPRJP1.node[91].networkLayer.arp 	failedARPResolution:count 	128
attr title  "ARP failed resolutions, count"
scalar scenarioPRJP1.node[91].networkLayer.arp 	completedARPResolution:count 	1905
attr title  "ARP completed resolutions, count"
scalar scenarioPRJP1.node[91].networkLayer.arp 	initiatedARPResolution:count 	223
attr title  "ARP initiated resolutions, count"
scalar scenarioPRJP1.node[91].networkLayer.arp 	sentReply:count 	53
attr title  "ARP replies sent, count"
scalar scenarioPRJP1.node[91].networkLayer.arp 	sentReq:count 	525
attr title  "ARP request sent, count"
scalar scenarioPRJP1.node[91].mobility 	startTime 	9.7
scalar scenarioPRJP1.node[91].mobility 	totalTime 	940.3
scalar scenarioPRJP1.node[91].mobility 	stopTime 	950
scalar scenarioPRJP1.node[91].mobility 	minSpeed 	2.4756322012041e-13
scalar scenarioPRJP1.node[91].mobility 	maxSpeed 	18.304215405788
scalar scenarioPRJP1.node[91].mobility 	totalDistance 	8850.6127400349
scalar scenarioPRJP1.node[91].mobility 	totalCO2Emission 	2513.5219374141
scalar scenarioPRJP1.node[91].wlan.mgmt 	dataQueueLen:max 	14
attr interpolationmode  sample-hold
attr title  "data queue length, max"
scalar scenarioPRJP1.node[91].wlan.mgmt 	dataQueueLen:timeavg 	0
attr interpolationmode  sample-hold
attr title  "data queue length, timeavg"
scalar scenarioPRJP1.node[91].wlan.mgmt 	dropPkByQueue:count 	0
attr interpolationmode  none
attr source  dropPkByQueue
attr title  "packets dropped by queue, count"
scalar scenarioPRJP1.node[91].wlan.mgmt 	dropPkByQueue:sum(packetBytes) 	0
attr interpolationmode  none
attr source  dropPkByQueue
attr title  "packets dropped by queue, sum(packetBytes)"
scalar scenarioPRJP1.node[91].wlan.mac 	"number of received packets" 	10193
scalar scenarioPRJP1.node[91].wlan.mac 	"number of collisions" 	77056
scalar scenarioPRJP1.node[91].wlan.mac 	"number of internal collisions" 	0
scalar scenarioPRJP1.node[91].wlan.mac 	"number of retry for AC 0" 	30029
scalar scenarioPRJP1.node[91].wlan.mac 	"number of retry for AC 1" 	0
scalar scenarioPRJP1.node[91].wlan.mac 	"number of retry for AC 2" 	0
scalar scenarioPRJP1.node[91].wlan.mac 	"number of retry for AC 3" 	0
scalar scenarioPRJP1.node[91].wlan.mac 	"sent and received bits" 	17425056
scalar scenarioPRJP1.node[91].wlan.mac 	"sent packet within AC 0" 	3650
scalar scenarioPRJP1.node[91].wlan.mac 	"sent packet within AC 1" 	0
scalar scenarioPRJP1.node[91].wlan.mac 	"sent packet within AC 2" 	0
scalar scenarioPRJP1.node[91].wlan.mac 	"sent packet within AC 3" 	0
scalar scenarioPRJP1.node[91].wlan.mac 	"sent in TXOP " 	0
scalar scenarioPRJP1.node[91].wlan.mac 	"sentWithoutRetry AC 0" 	3125
scalar scenarioPRJP1.node[91].wlan.mac 	"sentWithoutRetry AC 1" 	0
scalar scenarioPRJP1.node[91].wlan.mac 	"sentWithoutRetry AC 2" 	0
scalar scenarioPRJP1.node[91].wlan.mac 	"sentWithoutRetry AC 3" 	0
scalar scenarioPRJP1.node[91].wlan.mac 	"numGivenUp AC 0" 	4807
scalar scenarioPRJP1.node[91].wlan.mac 	"numGivenUp AC 1" 	0
scalar scenarioPRJP1.node[91].wlan.mac 	"numGivenUp AC 2" 	0
scalar scenarioPRJP1.node[91].wlan.mac 	"numGivenUp AC 3" 	0
scalar scenarioPRJP1.node[91].wlan.mac 	"numDropped AC 0" 	0
scalar scenarioPRJP1.node[91].wlan.mac 	"numDropped AC 1" 	0
scalar scenarioPRJP1.node[91].wlan.mac 	"numDropped AC 2" 	0
scalar scenarioPRJP1.node[91].wlan.mac 	"numDropped AC 3" 	0
scalar scenarioPRJP1.node[91].wlan.mac 	rcvdPkFromLL:count 	320754
attr interpolationmode  none
attr source  packetReceivedFromLower
attr title  "packets received from lower layer, count"
scalar scenarioPRJP1.node[91].wlan.mac 	rcvdPkFromLL:sum(packetBytes) 	83337628
attr interpolationmode  none
attr source  packetReceivedFromLower
attr title  "packets received from lower layer, sum(packetBytes)"
scalar scenarioPRJP1.node[91].wlan.mac 	sentDownPk:count 	62196
attr interpolationmode  none
attr source  packetSentToLower
attr title  "packets sent to lower layer, count"
scalar scenarioPRJP1.node[91].wlan.mac 	sentDownPk:sum(packetBytes) 	15997226
attr interpolationmode  none
attr source  packetSentToLower
attr title  "packets sent to lower layer, sum(packetBytes)"
scalar scenarioPRJP1.node[91].wlan.mac 	rcvdPkFromHL:count 	21974
attr interpolationmode  none
attr source  packetReceivedFromUpper
attr title  "packets received from higher layer, count"
scalar scenarioPRJP1.node[91].wlan.mac 	rcvdPkFromHL:sum(packetBytes) 	4058732
attr interpolationmode  none
attr source  packetReceivedFromUpper
attr title  "packets received from higher layer, sum(packetBytes)"
scalar scenarioPRJP1.node[91].wlan.mac 	passedUpPk:count 	50294
attr interpolationmode  none
attr source  packetSentToUpper
attr title  "packets passed to higher layer, count"
scalar scenarioPRJP1.node[91].wlan.mac 	passedUpPk:sum(packetBytes) 	4929256
attr interpolationmode  none
attr source  packetSentToUpper
attr title  "packets passed to higher layer, sum(packetBytes)"
statistic scenarioPRJP1.node[91].wlan.radio 	radioChannel:histogram
field count 1
field mean 3
field stddev -nan
field sum 3
field sqrsum 9
field min 3
field max 3
attr interpolationmode  sample-hold
attr source  radioChannelChanged
attr title  "Radio channel, histogram"
bin	-INF	0
bin	2	0
bin	3	1
bin	4	0
scalar scenarioPRJP1.node[91].wlan.radio 	transmissionState:count 	248784
attr interpolationmode  sample-hold
attr source  transmissionStateChanged
attr title  "Radio transmission state, count"
scalar scenarioPRJP1.node[91].wlan.radio 	receptionState:count 	789782
attr interpolationmode  sample-hold
attr source  receptionStateChanged
attr title  "Radio reception state, count"
scalar scenarioPRJP1.node[91].wlan.radio 	radioMode:count 	124394
attr interpolationmode  sample-hold
attr source  radioModeChanged
attr title  "Radio mode, count"
statistic scenarioPRJP1.node[91].wlan.radio 	symbolErrorRate:histogram
field count 0
field mean -nan
field stddev -nan
field sum 0
field sqrsum 0
field min -nan
field max -nan
attr source  symbolErrorRate
attr title  "Symbol error rate, histogram"
bin	-INF	0
bin	-0.5	0
bin	-0.46666666666667	0
bin	-0.43333333333333	0
bin	-0.4	0
bin	-0.36666666666667	0
bin	-0.33333333333333	0
bin	-0.3	0
bin	-0.26666666666667	0
bin	-0.23333333333333	0
bin	-0.2	0
bin	-0.16666666666667	0
bin	-0.13333333333333	0
bin	-0.1	0
bin	-0.066666666666667	0
bin	-0.033333333333333	0
bin	0	0
bin	0.033333333333333	0
bin	0.066666666666667	0
bin	0.1	0
bin	0.13333333333333	0
bin	0.16666666666667	0
bin	0.2	0
bin	0.23333333333333	0
bin	0.26666666666667	0
bin	0.3	0
bin	0.33333333333333	0
bin	0.36666666666667	0
bin	0.4	0
bin	0.43333333333333	0
bin	0.46666666666667	0
bin	0.5	0
statistic scenarioPRJP1.node[91].wlan.radio 	bitErrorRate:histogram
field count 0
field mean -nan
field stddev -nan
field sum 0
field sqrsum 0
field min -nan
field max -nan
attr source  bitErrorRate
attr title  "Bit error rate, histogram"
bin	-INF	0
bin	-0.5	0
bin	-0.46666666666667	0
bin	-0.43333333333333	0
bin	-0.4	0
bin	-0.36666666666667	0
bin	-0.33333333333333	0
bin	-0.3	0
bin	-0.26666666666667	0
bin	-0.23333333333333	0
bin	-0.2	0
bin	-0.16666666666667	0
bin	-0.13333333333333	0
bin	-0.1	0
bin	-0.066666666666667	0
bin	-0.033333333333333	0
bin	0	0
bin	0.033333333333333	0
bin	0.066666666666667	0
bin	0.1	0
bin	0.13333333333333	0
bin	0.16666666666667	0
bin	0.2	0
bin	0.23333333333333	0
bin	0.26666666666667	0
bin	0.3	0
bin	0.33333333333333	0
bin	0.36666666666667	0
bin	0.4	0
bin	0.43333333333333	0
bin	0.46666666666667	0
bin	0.5	0
statistic scenarioPRJP1.node[91].wlan.radio 	packetErrorRate:histogram
field count 320754
field mean 0.22340870620388
field stddev 0.40729497742467
field sum 71659.23614972
field sqrsum 69218.755365656
field min 0
field max 1
attr source  packetErrorRate
attr title  "Packet error rate, histogram"
bin	-INF	0
bin	-0.5	0
bin	-0.43333333333333	0
bin	-0.36666666666667	0
bin	-0.3	0
bin	-0.23333333333333	0
bin	-0.16666666666667	0
bin	-0.1	0
bin	-0.033333333333333	239015
bin	0.033333333333333	4137
bin	0.1	2017
bin	0.16666666666667	1340
bin	0.23333333333333	1105
bin	0.3	847
bin	0.36666666666667	756
bin	0.43333333333333	682
bin	0.5	614
bin	0.56666666666667	633
bin	0.63333333333333	635
bin	0.7	670
bin	0.76666666666667	758
bin	0.83333333333333	831
bin	0.9	1247
bin	0.96666666666667	65467
bin	1.0333333333333	0
bin	1.1	0
bin	1.1666666666667	0
bin	1.2333333333333	0
bin	1.3	0
bin	1.3666666666667	0
bin	1.4333333333333	0
bin	1.5	0
statistic scenarioPRJP1.node[91].wlan.radio 	minSNIR:histogram
field count 320754
field mean 4048.2419398862
field stddev 42351.441227344
field sum 1298489795.1863
field sqrsum 5.8057347890225e+14
field min 0.00016785517247051
field max 2828022.278188
attr source  minSNIR
attr title  "Min SNIR, histogram"
bin	-INF	0
bin	-194.29299066096	0
bin	-168.22385142515	0
bin	-142.15471218935	0
bin	-116.08557295354	0
bin	-90.016433717734	0
bin	-63.947294481928	0
bin	-37.878155246121	0
bin	-11.809016010315	157854
bin	14.260123225492	41967
bin	40.329262461298	16490
bin	66.398401697104	9878
bin	92.467540932911	6782
bin	118.53668016872	7066
bin	144.60581940452	6743
bin	170.67495864033	5193
bin	196.74409787614	3868
bin	222.81323711194	3223
bin	248.88237634775	3028
bin	274.95151558356	2495
bin	301.02065481936	2239
bin	327.08979405517	2134
bin	353.15893329097	1741
bin	379.22807252678	1487
bin	405.29721176259	1336
bin	431.36635099839	1255
bin	457.4354902342	1125
bin	483.50462947001	1058
bin	509.57376870581	948
bin	535.64290794162	938
bin	561.71204717743	853
bin	587.78118641323	41053
scalar scenarioPRJP1.node[91].lo0.lo 	droppedPkBitError:count 	0
attr interpolationmode  none
attr source  dropPkBitError
attr title  "packets dropped/bit error, count"
scalar scenarioPRJP1.node[91].lo0.lo 	droppedPkBitError:sum(packetBytes) 	0
attr interpolationmode  none
attr source  dropPkBitError
attr title  "packets dropped/bit error, sum(packetBytes)"
scalar scenarioPRJP1.node[91].lo0.lo 	rcvdPkFromHL:count 	129
attr interpolationmode  none
attr source  packetReceivedFromUpper
attr title  "packets received from higher layer, count"
scalar scenarioPRJP1.node[91].lo0.lo 	rcvdPkFromHL:sum(packetBytes) 	67080
attr interpolationmode  none
attr source  packetReceivedFromUpper
attr title  "packets received from higher layer, sum(packetBytes)"
scalar scenarioPRJP1.node[91].lo0.lo 	passedUpPk:count 	129
attr interpolationmode  none
attr source  packetSentToUpper
attr title  "packets passed to higher layer, count"
scalar scenarioPRJP1.node[91].lo0.lo 	passedUpPk:sum(packetBytes) 	67080
attr interpolationmode  none
attr source  packetSentToUpper
attr title  "packets passed to higher layer, sum(packetBytes)"
