version 2
run DSRUU-TRG-100n-12-20150806-10:39:55-6958
attr configname DSRUU-TRG-100n
attr datetime 20150806-10:39:55
attr experiment DSRUU-TRG-100n
attr inifile omnetpp.ini
attr iterationvars ""
attr iterationvars2 $repetition=12
attr measurement ""
attr network Prj_Part1_propag.scenarioPRJP1
attr processid 6958
attr repetition 12
attr replication #12
attr resultdir results
attr runnumber 12
attr seedset 12

scalar scenarioPRJP1.node[56].app 	"Total sent" 	364
scalar scenarioPRJP1.node[56].app 	"Total received" 	20
scalar scenarioPRJP1.node[56].app 	"Total deleted" 	1
scalar scenarioPRJP1.node[56].app 	dropPk:count 	1
attr interpolationmode  none
attr source  dropPk
attr title  "packets dropped, count"
scalar scenarioPRJP1.node[56].app 	dropPk:sum(packetBytes) 	512
attr interpolationmode  none
attr source  dropPk
attr title  "packets dropped, sum(packetBytes)"
scalar scenarioPRJP1.node[56].app 	outOfOrderPk:count 	1
attr interpolationmode  none
attr source  outOfOrderPk
attr title  "packets received out of order, count"
scalar scenarioPRJP1.node[56].app 	outOfOrderPk:sum(packetBytes) 	512
attr interpolationmode  none
attr source  outOfOrderPk
attr title  "packets received out of order, sum(packetBytes)"
scalar scenarioPRJP1.node[56].app 	rcvdPk:count 	20
attr interpolationmode  none
attr source  rcvdPk
attr title  "packets received, count"
scalar scenarioPRJP1.node[56].app 	rcvdPk:sum(packetBytes) 	10240
attr interpolationmode  none
attr source  rcvdPk
attr title  "packets received, sum(packetBytes)"
statistic scenarioPRJP1.node[56].app 	endToEndDelay:histogram
field count 20
field mean 0.77077655390435
field stddev 1.3656866164315
field sum 15.415531078087
field sqrsum 47.318828672678
field min 0.002037262842
field max 4.934055455142
attr interpolationmode  none
attr source  messageAge(rcvdPk)
attr title  "delay, histogram"
attr unit  s
bin	-INF	0
bin	-2.463971833308	0
bin	-2.135170620488	0
bin	-1.806369407668	0
bin	-1.477568194848	0
bin	-1.148766982028	0
bin	-0.819965769208	0
bin	-0.491164556388	0
bin	-0.162363343568	13
bin	0.166437869252	1
bin	0.495239082072	0
bin	0.824040294892	0
bin	1.152841507712	2
bin	1.481642720532	1
bin	1.810443933352	0
bin	2.139245146172	0
bin	2.468046358992	1
bin	2.796847571812	1
bin	3.125648784632	0
bin	3.454449997452	0
bin	3.783251210272	0
bin	4.112052423092	0
bin	4.440853635912	0
bin	4.769654848732	1
bin	5.098456061552	0
bin	5.427257274372	0
bin	5.756058487192	0
bin	6.084859700012	0
bin	6.413660912832	0
bin	6.742462125652	0
bin	7.071263338472	0
bin	7.400064551292	0
scalar scenarioPRJP1.node[56].app 	sentPk:count 	364
attr interpolationmode  none
attr source  sentPk
attr title  "packets sent, count"
scalar scenarioPRJP1.node[56].app 	sentPk:sum(packetBytes) 	186368
attr interpolationmode  none
attr source  sentPk
attr title  "packets sent, sum(packetBytes)"
scalar scenarioPRJP1.node[56].udp 	droppedPkBadChecksum:count 	0
attr interpolationmode  none
attr title  "packets dropped (checksum error), count"
scalar scenarioPRJP1.node[56].udp 	droppedPkWrongPort:count 	0
attr interpolationmode  none
attr title  "packets dropped (wrong port), count"
scalar scenarioPRJP1.node[56].udp 	passedUpPk:count 	22
attr interpolationmode  none
attr title  "packets passed up, count"
scalar scenarioPRJP1.node[56].udp 	rcvdPk:count 	22
attr interpolationmode  none
attr source  rcvdPk
attr title  "packets received, count"
scalar scenarioPRJP1.node[56].udp 	rcvdPk:sum(packetBytes) 	11440
attr interpolationmode  none
attr source  rcvdPk
attr title  "packets received, sum(packetBytes)"
scalar scenarioPRJP1.node[56].udp 	sentPk:count 	364
attr interpolationmode  none
attr source  sentPk
attr title  "packets sent, count"
scalar scenarioPRJP1.node[56].udp 	sentPk:sum(packetBytes) 	189280
attr interpolationmode  none
attr source  sentPk
attr title  "packets sent, sum(packetBytes)"
scalar scenarioPRJP1.node[56].networkLayer.arp 	failedARPResolution:count 	1
attr title  "ARP failed resolutions, count"
scalar scenarioPRJP1.node[56].networkLayer.arp 	completedARPResolution:count 	137
attr title  "ARP completed resolutions, count"
scalar scenarioPRJP1.node[56].networkLayer.arp 	initiatedARPResolution:count 	15
attr title  "ARP initiated resolutions, count"
scalar scenarioPRJP1.node[56].networkLayer.arp 	sentReply:count 	13
attr title  "ARP replies sent, count"
scalar scenarioPRJP1.node[56].networkLayer.arp 	sentReq:count 	25
attr title  "ARP request sent, count"
scalar scenarioPRJP1.node[56].mobility 	startTime 	4.9
scalar scenarioPRJP1.node[56].mobility 	totalTime 	154.2
scalar scenarioPRJP1.node[56].mobility 	stopTime 	159.2
scalar scenarioPRJP1.node[56].mobility 	minSpeed 	2.4768147439555e-13
scalar scenarioPRJP1.node[56].mobility 	maxSpeed 	18.525057803446
scalar scenarioPRJP1.node[56].mobility 	totalDistance 	1448.2813894648
scalar scenarioPRJP1.node[56].mobility 	totalCO2Emission 	423.7248429132
scalar scenarioPRJP1.node[56].wlan.mgmt 	dataQueueLen:max 	11
attr interpolationmode  sample-hold
attr title  "data queue length, max"
scalar scenarioPRJP1.node[56].wlan.mgmt 	dataQueueLen:timeavg 	0
attr interpolationmode  sample-hold
attr title  "data queue length, timeavg"
scalar scenarioPRJP1.node[56].wlan.mgmt 	dropPkByQueue:count 	0
attr interpolationmode  none
attr source  dropPkByQueue
attr title  "packets dropped by queue, count"
scalar scenarioPRJP1.node[56].wlan.mgmt 	dropPkByQueue:sum(packetBytes) 	0
attr interpolationmode  none
attr source  dropPkByQueue
attr title  "packets dropped by queue, sum(packetBytes)"
scalar scenarioPRJP1.node[56].wlan.mac 	"number of received packets" 	1848
scalar scenarioPRJP1.node[56].wlan.mac 	"number of collisions" 	17406
scalar scenarioPRJP1.node[56].wlan.mac 	"number of internal collisions" 	0
scalar scenarioPRJP1.node[56].wlan.mac 	"number of retry for AC 0" 	4371
scalar scenarioPRJP1.node[56].wlan.mac 	"number of retry for AC 1" 	0
scalar scenarioPRJP1.node[56].wlan.mac 	"number of retry for AC 2" 	0
scalar scenarioPRJP1.node[56].wlan.mac 	"number of retry for AC 3" 	0
scalar scenarioPRJP1.node[56].wlan.mac 	"sent and received bits" 	4950048
scalar scenarioPRJP1.node[56].wlan.mac 	"sent packet within AC 0" 	842
scalar scenarioPRJP1.node[56].wlan.mac 	"sent packet within AC 1" 	0
scalar scenarioPRJP1.node[56].wlan.mac 	"sent packet within AC 2" 	0
scalar scenarioPRJP1.node[56].wlan.mac 	"sent packet within AC 3" 	0
scalar scenarioPRJP1.node[56].wlan.mac 	"sent in TXOP " 	0
scalar scenarioPRJP1.node[56].wlan.mac 	"sentWithoutRetry AC 0" 	740
scalar scenarioPRJP1.node[56].wlan.mac 	"sentWithoutRetry AC 1" 	0
scalar scenarioPRJP1.node[56].wlan.mac 	"sentWithoutRetry AC 2" 	0
scalar scenarioPRJP1.node[56].wlan.mac 	"sentWithoutRetry AC 3" 	0
scalar scenarioPRJP1.node[56].wlan.mac 	"numGivenUp AC 0" 	690
scalar scenarioPRJP1.node[56].wlan.mac 	"numGivenUp AC 1" 	0
scalar scenarioPRJP1.node[56].wlan.mac 	"numGivenUp AC 2" 	0
scalar scenarioPRJP1.node[56].wlan.mac 	"numGivenUp AC 3" 	0
scalar scenarioPRJP1.node[56].wlan.mac 	"numDropped AC 0" 	0
scalar scenarioPRJP1.node[56].wlan.mac 	"numDropped AC 1" 	0
scalar scenarioPRJP1.node[56].wlan.mac 	"numDropped AC 2" 	0
scalar scenarioPRJP1.node[56].wlan.mac 	"numDropped AC 3" 	0
scalar scenarioPRJP1.node[56].wlan.mac 	rcvdPkFromLL:count 	76950
attr interpolationmode  none
attr source  packetReceivedFromLower
attr title  "packets received from lower layer, count"
scalar scenarioPRJP1.node[56].wlan.mac 	rcvdPkFromLL:sum(packetBytes) 	14313202
attr interpolationmode  none
attr source  packetReceivedFromLower
attr title  "packets received from lower layer, sum(packetBytes)"
scalar scenarioPRJP1.node[56].wlan.mac 	sentDownPk:count 	13083
attr interpolationmode  none
attr source  packetSentToLower
attr title  "packets sent to lower layer, count"
scalar scenarioPRJP1.node[56].wlan.mac 	sentDownPk:sum(packetBytes) 	2390764
attr interpolationmode  none
attr source  packetSentToLower
attr title  "packets sent to lower layer, sum(packetBytes)"
scalar scenarioPRJP1.node[56].wlan.mac 	rcvdPkFromHL:count 	6864
attr interpolationmode  none
attr source  packetReceivedFromUpper
attr title  "packets received from higher layer, count"
scalar scenarioPRJP1.node[56].wlan.mac 	rcvdPkFromHL:sum(packetBytes) 	855840
attr interpolationmode  none
attr source  packetReceivedFromUpper
attr title  "packets received from higher layer, sum(packetBytes)"
scalar scenarioPRJP1.node[56].wlan.mac 	passedUpPk:count 	25534
attr interpolationmode  none
attr source  packetSentToUpper
attr title  "packets passed to higher layer, count"
scalar scenarioPRJP1.node[56].wlan.mac 	passedUpPk:sum(packetBytes) 	2055592
attr interpolationmode  none
attr source  packetSentToUpper
attr title  "packets passed to higher layer, sum(packetBytes)"
statistic scenarioPRJP1.node[56].wlan.radio 	radioChannel:histogram
field count 1
field mean 3
field stddev nan
field sum 3
field sqrsum 9
field min 3
field max 3
attr interpolationmode  sample-hold
attr source  radioChannelChanged
attr title  "Radio channel, histogram"
bin	-INF	0
bin	2	0
bin	3	1
bin	4	0
scalar scenarioPRJP1.node[56].wlan.radio 	transmissionState:count 	52332
attr interpolationmode  sample-hold
attr source  transmissionStateChanged
attr title  "Radio transmission state, count"
scalar scenarioPRJP1.node[56].wlan.radio 	receptionState:count 	183655
attr interpolationmode  sample-hold
attr source  receptionStateChanged
attr title  "Radio reception state, count"
scalar scenarioPRJP1.node[56].wlan.radio 	radioMode:count 	26168
attr interpolationmode  sample-hold
attr source  radioModeChanged
attr title  "Radio mode, count"
statistic scenarioPRJP1.node[56].wlan.radio 	symbolErrorRate:histogram
field count 0
field mean nan
field stddev nan
field sum 0
field sqrsum 0
field min nan
field max nan
attr source  symbolErrorRate
attr title  "Symbol error rate, histogram"
bin	-INF	0
bin	-0.5	0
bin	-0.46666666666667	0
bin	-0.43333333333333	0
bin	-0.4	0
bin	-0.36666666666667	0
bin	-0.33333333333333	0
bin	-0.3	0
bin	-0.26666666666667	0
bin	-0.23333333333333	0
bin	-0.2	0
bin	-0.16666666666667	0
bin	-0.13333333333333	0
bin	-0.1	0
bin	-0.066666666666667	0
bin	-0.033333333333333	0
bin	0	0
bin	0.033333333333333	0
bin	0.066666666666667	0
bin	0.1	0
bin	0.13333333333333	0
bin	0.16666666666667	0
bin	0.2	0
bin	0.23333333333333	0
bin	0.26666666666667	0
bin	0.3	0
bin	0.33333333333333	0
bin	0.36666666666667	0
bin	0.4	0
bin	0.43333333333333	0
bin	0.46666666666667	0
bin	0.5	0
statistic scenarioPRJP1.node[56].wlan.radio 	bitErrorRate:histogram
field count 0
field mean nan
field stddev nan
field sum 0
field sqrsum 0
field min nan
field max nan
attr source  bitErrorRate
attr title  "Bit error rate, histogram"
bin	-INF	0
bin	-0.5	0
bin	-0.46666666666667	0
bin	-0.43333333333333	0
bin	-0.4	0
bin	-0.36666666666667	0
bin	-0.33333333333333	0
bin	-0.3	0
bin	-0.26666666666667	0
bin	-0.23333333333333	0
bin	-0.2	0
bin	-0.16666666666667	0
bin	-0.13333333333333	0
bin	-0.1	0
bin	-0.066666666666667	0
bin	-0.033333333333333	0
bin	0	0
bin	0.033333333333333	0
bin	0.066666666666667	0
bin	0.1	0
bin	0.13333333333333	0
bin	0.16666666666667	0
bin	0.2	0
bin	0.23333333333333	0
bin	0.26666666666667	0
bin	0.3	0
bin	0.33333333333333	0
bin	0.36666666666667	0
bin	0.4	0
bin	0.43333333333333	0
bin	0.46666666666667	0
bin	0.5	0
statistic scenarioPRJP1.node[56].wlan.radio 	packetErrorRate:histogram
field count 76950
field mean 0.20238063155283
field stddev 0.39272242950603
field sum 15573.18959799
field sqrsum 15019.625980953
field min 0
field max 1
attr source  packetErrorRate
attr title  "Packet error rate, histogram"
bin	-INF	0
bin	-0.49999952512354	0
bin	-0.43333292177374	0
bin	-0.36666631842393	0
bin	-0.29999971507412	0
bin	-0.23333311172432	0
bin	-0.16666650837451	0
bin	-0.099999905024708	0
bin	-0.033333301674903	59089
bin	0.033333301674903	968
bin	0.099999905024708	442
bin	0.16666650837451	289
bin	0.23333311172432	227
bin	0.29999971507412	201
bin	0.36666631842393	191
bin	0.43333292177374	147
bin	0.49999952512354	161
bin	0.56666612847335	163
bin	0.63333273182315	123
bin	0.69999933517296	144
bin	0.76666593852276	145
bin	0.83333254187257	189
bin	0.89999914522237	299
bin	0.96666574857218	14172
bin	1.033332351922	0
bin	1.0999989552718	0
bin	1.1666655586216	0
bin	1.2333321619714	0
bin	1.2999987653212	0
bin	1.366665368671	0
bin	1.4333319720208	0
bin	1.4999985753706	0
statistic scenarioPRJP1.node[56].wlan.radio 	minSNIR:histogram
field count 76950
field mean 716.79216426752
field stddev 7443.4066269174
field sum 55157157.040385
field sqrsum 4302841869007.1
field min 0.00071146769219668
field max 752148.09106009
attr source  minSNIR
attr title  "Min SNIR, histogram"
bin	-INF	0
bin	-6078.2716439661	0
bin	-5267.4465076748	0
bin	-4456.6213713835	0
bin	-3645.7962350922	0
bin	-2834.9710988009	0
bin	-2024.1459625096	0
bin	-1213.3208262183	0
bin	-402.49568992696	62547
bin	408.32944636435	7095
bin	1219.1545826557	3447
bin	2029.979718947	1330
bin	2840.8048552383	570
bin	3651.6299915296	263
bin	4462.4551278209	184
bin	5273.2802641122	123
bin	6084.1054004035	137
bin	6894.9305366948	104
bin	7705.7556729861	82
bin	8516.5808092774	79
bin	9327.4059455688	112
bin	10138.23108186	83
bin	10949.056218151	72
bin	11759.881354443	53
bin	12570.706490734	37
bin	13381.531627025	35
bin	14192.356763317	44
bin	15003.181899608	36
bin	15814.007035899	52
bin	16624.832172191	45
bin	17435.657308482	27
bin	18246.482444773	393
scalar scenarioPRJP1.node[56].lo0.lo 	droppedPkBitError:count 	0
attr interpolationmode  none
attr source  dropPkBitError
attr title  "packets dropped/bit error, count"
scalar scenarioPRJP1.node[56].lo0.lo 	droppedPkBitError:sum(packetBytes) 	0
attr interpolationmode  none
attr source  dropPkBitError
attr title  "packets dropped/bit error, sum(packetBytes)"
scalar scenarioPRJP1.node[56].lo0.lo 	rcvdPkFromHL:count 	22
attr interpolationmode  none
attr source  packetReceivedFromUpper
attr title  "packets received from higher layer, count"
scalar scenarioPRJP1.node[56].lo0.lo 	rcvdPkFromHL:sum(packetBytes) 	11440
attr interpolationmode  none
attr source  packetReceivedFromUpper
attr title  "packets received from higher layer, sum(packetBytes)"
scalar scenarioPRJP1.node[56].lo0.lo 	passedUpPk:count 	22
attr interpolationmode  none
attr source  packetSentToUpper
attr title  "packets passed to higher layer, count"
scalar scenarioPRJP1.node[56].lo0.lo 	passedUpPk:sum(packetBytes) 	11440
attr interpolationmode  none
attr source  packetSentToUpper
attr title  "packets passed to higher layer, sum(packetBytes)"
scalar scenarioPRJP1.node[98].app 	"Total sent" 	364
scalar scenarioPRJP1.node[98].app 	"Total received" 	15
scalar scenarioPRJP1.node[98].app 	"Total deleted" 	1
scalar scenarioPRJP1.node[98].app 	dropPk:count 	1
attr interpolationmode  none
attr source  dropPk
attr title  "packets dropped, count"
scalar scenarioPRJP1.node[98].app 	dropPk:sum(packetBytes) 	512
attr interpolationmode  none
attr source  dropPk
attr title  "packets dropped, sum(packetBytes)"
scalar scenarioPRJP1.node[98].app 	outOfOrderPk:count 	1
attr interpolationmode  none
attr source  outOfOrderPk
attr title  "packets received out of order, count"
scalar scenarioPRJP1.node[98].app 	outOfOrderPk:sum(packetBytes) 	512
attr interpolationmode  none
attr source  outOfOrderPk
attr title  "packets received out of order, sum(packetBytes)"
scalar scenarioPRJP1.node[98].app 	rcvdPk:count 	15
attr interpolationmode  none
attr source  rcvdPk
attr title  "packets received, count"
scalar scenarioPRJP1.node[98].app 	rcvdPk:sum(packetBytes) 	7680
attr interpolationmode  none
attr source  rcvdPk
attr title  "packets received, sum(packetBytes)"
statistic scenarioPRJP1.node[98].app 	endToEndDelay:histogram
field count 15
field mean 1.2693480958927
field stddev 2.6097559229246
field sum 19.04022143839
field sqrsum 119.52023250956
field min 0.001068283025
field max 7.984158471284
attr interpolationmode  none
attr source  messageAge(rcvdPk)
attr title  "delay, histogram"
attr unit  s
bin	-INF	0
bin	-3.9904768111045	0
bin	-3.4582707985539	0
bin	-2.9260647860033	0
bin	-2.3938587734527	0
bin	-1.8616527609021	0
bin	-1.3294467483515	0
bin	-0.7972407358009	0
bin	-0.2650347232503	11
bin	0.2671712893003	0
bin	0.7993773018509	1
bin	1.3315833144015	0
bin	1.8637893269521	1
bin	2.3959953395027	0
bin	2.9282013520533	0
bin	3.4604073646039	0
bin	3.9926133771545	0
bin	4.5248193897051	0
bin	5.0570254022557	0
bin	5.5892314148063	0
bin	6.1214374273569	0
bin	6.6536434399075	1
bin	7.1858494524581	0
bin	7.7180554650087	1
bin	8.2502614775593	0
bin	8.7824674901099	0
bin	9.3146735026605	0
bin	9.8468795152111	0
bin	10.379085527762	0
bin	10.911291540312	0
bin	11.443497552863	0
bin	11.975703565414	0
scalar scenarioPRJP1.node[98].app 	sentPk:count 	364
attr interpolationmode  none
attr source  sentPk
attr title  "packets sent, count"
scalar scenarioPRJP1.node[98].app 	sentPk:sum(packetBytes) 	186368
attr interpolationmode  none
attr source  sentPk
attr title  "packets sent, sum(packetBytes)"
scalar scenarioPRJP1.node[98].udp 	droppedPkBadChecksum:count 	0
attr interpolationmode  none
attr title  "packets dropped (checksum error), count"
scalar scenarioPRJP1.node[98].udp 	droppedPkWrongPort:count 	0
attr interpolationmode  none
attr title  "packets dropped (wrong port), count"
scalar scenarioPRJP1.node[98].udp 	passedUpPk:count 	17
attr interpolationmode  none
attr title  "packets passed up, count"
scalar scenarioPRJP1.node[98].udp 	rcvdPk:count 	17
attr interpolationmode  none
attr source  rcvdPk
attr title  "packets received, count"
scalar scenarioPRJP1.node[98].udp 	rcvdPk:sum(packetBytes) 	8840
attr interpolationmode  none
attr source  rcvdPk
attr title  "packets received, sum(packetBytes)"
scalar scenarioPRJP1.node[98].udp 	sentPk:count 	364
attr interpolationmode  none
attr source  sentPk
attr title  "packets sent, count"
scalar scenarioPRJP1.node[98].udp 	sentPk:sum(packetBytes) 	189280
attr interpolationmode  none
attr source  sentPk
attr title  "packets sent, sum(packetBytes)"
scalar scenarioPRJP1.node[98].networkLayer.arp 	failedARPResolution:count 	10
attr title  "ARP failed resolutions, count"
scalar scenarioPRJP1.node[98].networkLayer.arp 	completedARPResolution:count 	118
attr title  "ARP completed resolutions, count"
scalar scenarioPRJP1.node[98].networkLayer.arp 	initiatedARPResolution:count 	16
attr title  "ARP initiated resolutions, count"
scalar scenarioPRJP1.node[98].networkLayer.arp 	sentReply:count 	13
attr title  "ARP replies sent, count"
scalar scenarioPRJP1.node[98].networkLayer.arp 	sentReq:count 	40
attr title  "ARP request sent, count"
scalar scenarioPRJP1.node[98].mobility 	startTime 	9.8
scalar scenarioPRJP1.node[98].mobility 	totalTime 	150
scalar scenarioPRJP1.node[98].mobility 	stopTime 	159.9
scalar scenarioPRJP1.node[98].mobility 	minSpeed 	2.4763478335569e-13
scalar scenarioPRJP1.node[98].mobility 	maxSpeed 	18.331485926317
scalar scenarioPRJP1.node[98].mobility 	totalDistance 	1484.0216356181
scalar scenarioPRJP1.node[98].mobility 	totalCO2Emission 	449.30865301788
scalar scenarioPRJP1.node[98].wlan.mgmt 	dataQueueLen:max 	28
attr interpolationmode  sample-hold
attr title  "data queue length, max"
scalar scenarioPRJP1.node[98].wlan.mgmt 	dataQueueLen:timeavg 	0.17016283061257
attr interpolationmode  sample-hold
attr title  "data queue length, timeavg"
scalar scenarioPRJP1.node[98].wlan.mgmt 	dropPkByQueue:count 	0
attr interpolationmode  none
attr source  dropPkByQueue
attr title  "packets dropped by queue, count"
scalar scenarioPRJP1.node[98].wlan.mgmt 	dropPkByQueue:sum(packetBytes) 	0
attr interpolationmode  none
attr source  dropPkByQueue
attr title  "packets dropped by queue, sum(packetBytes)"
scalar scenarioPRJP1.node[98].wlan.mac 	"number of received packets" 	1997
scalar scenarioPRJP1.node[98].wlan.mac 	"number of collisions" 	19796
scalar scenarioPRJP1.node[98].wlan.mac 	"number of internal collisions" 	0
scalar scenarioPRJP1.node[98].wlan.mac 	"number of retry for AC 0" 	5529
scalar scenarioPRJP1.node[98].wlan.mac 	"number of retry for AC 1" 	0
scalar scenarioPRJP1.node[98].wlan.mac 	"number of retry for AC 2" 	0
scalar scenarioPRJP1.node[98].wlan.mac 	"number of retry for AC 3" 	0
scalar scenarioPRJP1.node[98].wlan.mac 	"sent and received bits" 	4327648
scalar scenarioPRJP1.node[98].wlan.mac 	"sent packet within AC 0" 	943
scalar scenarioPRJP1.node[98].wlan.mac 	"sent packet within AC 1" 	0
scalar scenarioPRJP1.node[98].wlan.mac 	"sent packet within AC 2" 	0
scalar scenarioPRJP1.node[98].wlan.mac 	"sent packet within AC 3" 	0
scalar scenarioPRJP1.node[98].wlan.mac 	"sent in TXOP " 	0
scalar scenarioPRJP1.node[98].wlan.mac 	"sentWithoutRetry AC 0" 	835
scalar scenarioPRJP1.node[98].wlan.mac 	"sentWithoutRetry AC 1" 	0
scalar scenarioPRJP1.node[98].wlan.mac 	"sentWithoutRetry AC 2" 	0
scalar scenarioPRJP1.node[98].wlan.mac 	"sentWithoutRetry AC 3" 	0
scalar scenarioPRJP1.node[98].wlan.mac 	"numGivenUp AC 0" 	887
scalar scenarioPRJP1.node[98].wlan.mac 	"numGivenUp AC 1" 	0
scalar scenarioPRJP1.node[98].wlan.mac 	"numGivenUp AC 2" 	0
scalar scenarioPRJP1.node[98].wlan.mac 	"numGivenUp AC 3" 	0
scalar scenarioPRJP1.node[98].wlan.mac 	"numDropped AC 0" 	90
scalar scenarioPRJP1.node[98].wlan.mac 	"numDropped AC 1" 	0
scalar scenarioPRJP1.node[98].wlan.mac 	"numDropped AC 2" 	0
scalar scenarioPRJP1.node[98].wlan.mac 	"numDropped AC 3" 	0
scalar scenarioPRJP1.node[98].wlan.mac 	rcvdPkFromLL:count 	79441
attr interpolationmode  none
attr source  packetReceivedFromLower
attr title  "packets received from lower layer, count"
scalar scenarioPRJP1.node[98].wlan.mac 	rcvdPkFromLL:sum(packetBytes) 	15256374
attr interpolationmode  none
attr source  packetReceivedFromLower
attr title  "packets received from lower layer, sum(packetBytes)"
scalar scenarioPRJP1.node[98].wlan.mac 	sentDownPk:count 	13448
attr interpolationmode  none
attr source  packetSentToLower
attr title  "packets sent to lower layer, count"
scalar scenarioPRJP1.node[98].wlan.mac 	sentDownPk:sum(packetBytes) 	2775090
attr interpolationmode  none
attr source  packetSentToLower
attr title  "packets sent to lower layer, sum(packetBytes)"
scalar scenarioPRJP1.node[98].wlan.mac 	rcvdPkFromHL:count 	6012
attr interpolationmode  none
attr source  packetReceivedFromUpper
attr title  "packets received from higher layer, count"
scalar scenarioPRJP1.node[98].wlan.mac 	rcvdPkFromHL:sum(packetBytes) 	860580
attr interpolationmode  none
attr source  packetReceivedFromUpper
attr title  "packets received from higher layer, sum(packetBytes)"
scalar scenarioPRJP1.node[98].wlan.mac 	passedUpPk:count 	17489
attr interpolationmode  none
attr source  packetSentToUpper
attr title  "packets passed to higher layer, count"
scalar scenarioPRJP1.node[98].wlan.mac 	passedUpPk:sum(packetBytes) 	1510008
attr interpolationmode  none
attr source  packetSentToUpper
attr title  "packets passed to higher layer, sum(packetBytes)"
statistic scenarioPRJP1.node[98].wlan.radio 	radioChannel:histogram
field count 1
field mean 3
field stddev nan
field sum 3
field sqrsum 9
field min 3
field max 3
attr interpolationmode  sample-hold
attr source  radioChannelChanged
attr title  "Radio channel, histogram"
bin	-INF	0
bin	2	0
bin	3	1
bin	4	0
scalar scenarioPRJP1.node[98].wlan.radio 	transmissionState:count 	53792
attr interpolationmode  sample-hold
attr source  transmissionStateChanged
attr title  "Radio transmission state, count"
scalar scenarioPRJP1.node[98].wlan.radio 	receptionState:count 	188627
attr interpolationmode  sample-hold
attr source  receptionStateChanged
attr title  "Radio reception state, count"
scalar scenarioPRJP1.node[98].wlan.radio 	radioMode:count 	26898
attr interpolationmode  sample-hold
attr source  radioModeChanged
attr title  "Radio mode, count"
statistic scenarioPRJP1.node[98].wlan.radio 	symbolErrorRate:histogram
field count 0
field mean nan
field stddev nan
field sum 0
field sqrsum 0
field min nan
field max nan
attr source  symbolErrorRate
attr title  "Symbol error rate, histogram"
bin	-INF	0
bin	-0.5	0
bin	-0.46666666666667	0
bin	-0.43333333333333	0
bin	-0.4	0
bin	-0.36666666666667	0
bin	-0.33333333333333	0
bin	-0.3	0
bin	-0.26666666666667	0
bin	-0.23333333333333	0
bin	-0.2	0
bin	-0.16666666666667	0
bin	-0.13333333333333	0
bin	-0.1	0
bin	-0.066666666666667	0
bin	-0.033333333333333	0
bin	0	0
bin	0.033333333333333	0
bin	0.066666666666667	0
bin	0.1	0
bin	0.13333333333333	0
bin	0.16666666666667	0
bin	0.2	0
bin	0.23333333333333	0
bin	0.26666666666667	0
bin	0.3	0
bin	0.33333333333333	0
bin	0.36666666666667	0
bin	0.4	0
bin	0.43333333333333	0
bin	0.46666666666667	0
bin	0.5	0
statistic scenarioPRJP1.node[98].wlan.radio 	bitErrorRate:histogram
field count 0
field mean nan
field stddev nan
field sum 0
field sqrsum 0
field min nan
field max nan
attr source  bitErrorRate
attr title  "Bit error rate, histogram"
bin	-INF	0
bin	-0.5	0
bin	-0.46666666666667	0
bin	-0.43333333333333	0
bin	-0.4	0
bin	-0.36666666666667	0
bin	-0.33333333333333	0
bin	-0.3	0
bin	-0.26666666666667	0
bin	-0.23333333333333	0
bin	-0.2	0
bin	-0.16666666666667	0
bin	-0.13333333333333	0
bin	-0.1	0
bin	-0.066666666666667	0
bin	-0.033333333333333	0
bin	0	0
bin	0.033333333333333	0
bin	0.066666666666667	0
bin	0.1	0
bin	0.13333333333333	0
bin	0.16666666666667	0
bin	0.2	0
bin	0.23333333333333	0
bin	0.26666666666667	0
bin	0.3	0
bin	0.33333333333333	0
bin	0.36666666666667	0
bin	0.4	0
bin	0.43333333333333	0
bin	0.46666666666667	0
bin	0.5	0
statistic scenarioPRJP1.node[98].wlan.radio 	packetErrorRate:histogram
field count 79441
field mean 0.2235057377929
field stddev 0.40615862562399
field sum 17755.519316006
field sqrsum 17073.266473787
field min 0
field max 1
attr source  packetErrorRate
attr title  "Packet error rate, histogram"
bin	-INF	0
bin	-0.5	0
bin	-0.43333333333333	0
bin	-0.36666666666667	0
bin	-0.3	0
bin	-0.23333333333333	0
bin	-0.16666666666667	0
bin	-0.1	0
bin	-0.033333333333333	58878
bin	0.033333333333333	1179
bin	0.1	525
bin	0.16666666666667	342
bin	0.23333333333333	301
bin	0.3	256
bin	0.36666666666667	241
bin	0.43333333333333	197
bin	0.5	177
bin	0.56666666666667	176
bin	0.63333333333333	186
bin	0.7	182
bin	0.76666666666667	197
bin	0.83333333333333	237
bin	0.9	319
bin	0.96666666666667	16048
bin	1.0333333333333	0
bin	1.1	0
bin	1.1666666666667	0
bin	1.2333333333333	0
bin	1.3	0
bin	1.3666666666667	0
bin	1.4333333333333	0
bin	1.5	0
statistic scenarioPRJP1.node[98].wlan.radio 	minSNIR:histogram
field count 79441
field mean 904.5801700456
field stddev 8110.5318989416
field sum 71860753.288592
field sqrsum 5290624819626.5
field min 0.00071039186433417
field max 753238.32180088
attr source  minSNIR
attr title  "Min SNIR, histogram"
bin	-INF	0
bin	-66.158351491122	0
bin	-57.192922580282	0
bin	-48.227493669442	0
bin	-39.262064758602	0
bin	-30.296635847761	0
bin	-21.331206936921	0
bin	-12.365778026081	0
bin	-3.4003491152411	29177
bin	5.565079795599	13214
bin	14.530508706439	5047
bin	23.495937617279	2863
bin	32.461366528119	1821
bin	41.426795438959	1414
bin	50.3922243498	1104
bin	59.35765326064	853
bin	68.32308217148	767
bin	77.28851108232	655
bin	86.25393999316	541
bin	95.219368904	551
bin	104.18479781484	458
bin	113.15022672568	392
bin	122.11565563652	481
bin	131.08108454736	497
bin	140.0465134582	381
bin	149.01194236904	305
bin	157.97737127988	308
bin	166.94280019072	273
bin	175.90822910156	245
bin	184.8736580124	239
bin	193.83908692324	280
bin	202.80451583408	17575
scalar scenarioPRJP1.node[98].lo0.lo 	droppedPkBitError:count 	0
attr interpolationmode  none
attr source  dropPkBitError
attr title  "packets dropped/bit error, count"
scalar scenarioPRJP1.node[98].lo0.lo 	droppedPkBitError:sum(packetBytes) 	0
attr interpolationmode  none
attr source  dropPkBitError
attr title  "packets dropped/bit error, sum(packetBytes)"
scalar scenarioPRJP1.node[98].lo0.lo 	rcvdPkFromHL:count 	17
attr interpolationmode  none
attr source  packetReceivedFromUpper
attr title  "packets received from higher layer, count"
scalar scenarioPRJP1.node[98].lo0.lo 	rcvdPkFromHL:sum(packetBytes) 	8840
attr interpolationmode  none
attr source  packetReceivedFromUpper
attr title  "packets received from higher layer, sum(packetBytes)"
scalar scenarioPRJP1.node[98].lo0.lo 	passedUpPk:count 	17
attr interpolationmode  none
attr source  packetSentToUpper
attr title  "packets passed to higher layer, count"
scalar scenarioPRJP1.node[98].lo0.lo 	passedUpPk:sum(packetBytes) 	8840
attr interpolationmode  none
attr source  packetSentToUpper
attr title  "packets passed to higher layer, sum(packetBytes)"
scalar scenarioPRJP1.node[50].app 	"Total sent" 	368
scalar scenarioPRJP1.node[50].app 	"Total received" 	35
scalar scenarioPRJP1.node[50].app 	"Total deleted" 	2
scalar scenarioPRJP1.node[50].app 	dropPk:count 	2
attr interpolationmode  none
attr source  dropPk
attr title  "packets dropped, count"
scalar scenarioPRJP1.node[50].app 	dropPk:sum(packetBytes) 	1024
attr interpolationmode  none
attr source  dropPk
attr title  "packets dropped, sum(packetBytes)"
scalar scenarioPRJP1.node[50].app 	outOfOrderPk:count 	5
attr interpolationmode  none
attr source  outOfOrderPk
attr title  "packets received out of order, count"
scalar scenarioPRJP1.node[50].app 	outOfOrderPk:sum(packetBytes) 	2560
attr interpolationmode  none
attr source  outOfOrderPk
attr title  "packets received out of order, sum(packetBytes)"
scalar scenarioPRJP1.node[50].app 	rcvdPk:count 	35
attr interpolationmode  none
attr source  rcvdPk
attr title  "packets received, count"
scalar scenarioPRJP1.node[50].app 	rcvdPk:sum(packetBytes) 	17920
attr interpolationmode  none
attr source  rcvdPk
attr title  "packets received, sum(packetBytes)"
statistic scenarioPRJP1.node[50].app 	endToEndDelay:histogram
field count 35
field mean 0.52300654066926
field stddev 0.88303294596982
field sum 18.305228923424
field sqrsum 36.085158700115
field min 0.000977361139
field max 3.651899583243
attr interpolationmode  none
attr source  messageAge(rcvdPk)
attr title  "delay, histogram"
attr unit  s
bin	-INF	0
bin	-1.824483749913	0
bin	-1.5810889351061	0
bin	-1.3376941202991	0
bin	-1.0942993054922	0
bin	-0.85090449068527	0
bin	-0.60750967587833	0
bin	-0.3641148610714	0
bin	-0.12072004626447	19
bin	0.12267476854247	4
bin	0.3660695833494	4
bin	0.60946439815633	1
bin	0.85285921296327	1
bin	1.0962540277702	1
bin	1.3396488425771	1
bin	1.5830436573841	2
bin	1.826438472191	0
bin	2.0698332869979	0
bin	2.3132281018049	0
bin	2.5566229166118	0
bin	2.8000177314187	0
bin	3.0434125462257	1
bin	3.2868073610326	0
bin	3.5302021758395	1
bin	3.7735969906465	0
bin	4.0169918054534	0
bin	4.2603866202603	0
bin	4.5037814350673	0
bin	4.7471762498742	0
bin	4.9905710646811	0
bin	5.2339658794881	0
bin	5.477360694295	0
scalar scenarioPRJP1.node[50].app 	sentPk:count 	368
attr interpolationmode  none
attr source  sentPk
attr title  "packets sent, count"
scalar scenarioPRJP1.node[50].app 	sentPk:sum(packetBytes) 	188416
attr interpolationmode  none
attr source  sentPk
attr title  "packets sent, sum(packetBytes)"
scalar scenarioPRJP1.node[50].udp 	droppedPkBadChecksum:count 	0
attr interpolationmode  none
attr title  "packets dropped (checksum error), count"
scalar scenarioPRJP1.node[50].udp 	droppedPkWrongPort:count 	0
attr interpolationmode  none
attr title  "packets dropped (wrong port), count"
scalar scenarioPRJP1.node[50].udp 	passedUpPk:count 	42
attr interpolationmode  none
attr title  "packets passed up, count"
scalar scenarioPRJP1.node[50].udp 	rcvdPk:count 	42
attr interpolationmode  none
attr source  rcvdPk
attr title  "packets received, count"
scalar scenarioPRJP1.node[50].udp 	rcvdPk:sum(packetBytes) 	21840
attr interpolationmode  none
attr source  rcvdPk
attr title  "packets received, sum(packetBytes)"
scalar scenarioPRJP1.node[50].udp 	sentPk:count 	368
attr interpolationmode  none
attr source  sentPk
attr title  "packets sent, count"
scalar scenarioPRJP1.node[50].udp 	sentPk:sum(packetBytes) 	191360
attr interpolationmode  none
attr source  sentPk
attr title  "packets sent, sum(packetBytes)"
scalar scenarioPRJP1.node[50].networkLayer.arp 	failedARPResolution:count 	2
attr title  "ARP failed resolutions, count"
scalar scenarioPRJP1.node[50].networkLayer.arp 	completedARPResolution:count 	156
attr title  "ARP completed resolutions, count"
scalar scenarioPRJP1.node[50].networkLayer.arp 	initiatedARPResolution:count 	18
attr title  "ARP initiated resolutions, count"
scalar scenarioPRJP1.node[50].networkLayer.arp 	sentReply:count 	15
attr title  "ARP replies sent, count"
scalar scenarioPRJP1.node[50].networkLayer.arp 	sentReq:count 	34
attr title  "ARP request sent, count"
scalar scenarioPRJP1.node[50].mobility 	startTime 	4.9
scalar scenarioPRJP1.node[50].mobility 	totalTime 	154.9
scalar scenarioPRJP1.node[50].mobility 	stopTime 	159.9
scalar scenarioPRJP1.node[50].mobility 	minSpeed 	2.475488623801e-13
scalar scenarioPRJP1.node[50].mobility 	maxSpeed 	18.266106562655
scalar scenarioPRJP1.node[50].mobility 	totalDistance 	1484.9185516806
scalar scenarioPRJP1.node[50].mobility 	totalCO2Emission 	465.01048335464
scalar scenarioPRJP1.node[50].wlan.mgmt 	dataQueueLen:max 	18
attr interpolationmode  sample-hold
attr title  "data queue length, max"
scalar scenarioPRJP1.node[50].wlan.mgmt 	dataQueueLen:timeavg 	0
attr interpolationmode  sample-hold
attr title  "data queue length, timeavg"
scalar scenarioPRJP1.node[50].wlan.mgmt 	dropPkByQueue:count 	0
attr interpolationmode  none
attr source  dropPkByQueue
attr title  "packets dropped by queue, count"
scalar scenarioPRJP1.node[50].wlan.mgmt 	dropPkByQueue:sum(packetBytes) 	0
attr interpolationmode  none
attr source  dropPkByQueue
attr title  "packets dropped by queue, sum(packetBytes)"
scalar scenarioPRJP1.node[50].wlan.mac 	"number of received packets" 	2703
scalar scenarioPRJP1.node[50].wlan.mac 	"number of collisions" 	17789
scalar scenarioPRJP1.node[50].wlan.mac 	"number of internal collisions" 	0
scalar scenarioPRJP1.node[50].wlan.mac 	"number of retry for AC 0" 	6614
scalar scenarioPRJP1.node[50].wlan.mac 	"number of retry for AC 1" 	0
scalar scenarioPRJP1.node[50].wlan.mac 	"number of retry for AC 2" 	0
scalar scenarioPRJP1.node[50].wlan.mac 	"number of retry for AC 3" 	0
scalar scenarioPRJP1.node[50].wlan.mac 	"sent and received bits" 	6034912
scalar scenarioPRJP1.node[50].wlan.mac 	"sent packet within AC 0" 	1277
scalar scenarioPRJP1.node[50].wlan.mac 	"sent packet within AC 1" 	0
scalar scenarioPRJP1.node[50].wlan.mac 	"sent packet within AC 2" 	0
scalar scenarioPRJP1.node[50].wlan.mac 	"sent packet within AC 3" 	0
scalar scenarioPRJP1.node[50].wlan.mac 	"sent in TXOP " 	0
scalar scenarioPRJP1.node[50].wlan.mac 	"sentWithoutRetry AC 0" 	1114
scalar scenarioPRJP1.node[50].wlan.mac 	"sentWithoutRetry AC 1" 	0
scalar scenarioPRJP1.node[50].wlan.mac 	"sentWithoutRetry AC 2" 	0
scalar scenarioPRJP1.node[50].wlan.mac 	"sentWithoutRetry AC 3" 	0
scalar scenarioPRJP1.node[50].wlan.mac 	"numGivenUp AC 0" 	1047
scalar scenarioPRJP1.node[50].wlan.mac 	"numGivenUp AC 1" 	0
scalar scenarioPRJP1.node[50].wlan.mac 	"numGivenUp AC 2" 	0
scalar scenarioPRJP1.node[50].wlan.mac 	"numGivenUp AC 3" 	0
scalar scenarioPRJP1.node[50].wlan.mac 	"numDropped AC 0" 	0
scalar scenarioPRJP1.node[50].wlan.mac 	"numDropped AC 1" 	0
scalar scenarioPRJP1.node[50].wlan.mac 	"numDropped AC 2" 	0
scalar scenarioPRJP1.node[50].wlan.mac 	"numDropped AC 3" 	0
scalar scenarioPRJP1.node[50].wlan.mac 	rcvdPkFromLL:count 	92986
attr interpolationmode  none
attr source  packetReceivedFromLower
attr title  "packets received from lower layer, count"
scalar scenarioPRJP1.node[50].wlan.mac 	rcvdPkFromLL:sum(packetBytes) 	18055822
attr interpolationmode  none
attr source  packetReceivedFromLower
attr title  "packets received from lower layer, sum(packetBytes)"
scalar scenarioPRJP1.node[50].wlan.mac 	sentDownPk:count 	16929
attr interpolationmode  none
attr source  packetSentToLower
attr title  "packets sent to lower layer, count"
scalar scenarioPRJP1.node[50].wlan.mac 	sentDownPk:sum(packetBytes) 	3292234
attr interpolationmode  none
attr source  packetSentToLower
attr title  "packets sent to lower layer, sum(packetBytes)"
scalar scenarioPRJP1.node[50].wlan.mac 	rcvdPkFromHL:count 	7612
attr interpolationmode  none
attr source  packetReceivedFromUpper
attr title  "packets received from higher layer, count"
scalar scenarioPRJP1.node[50].wlan.mac 	rcvdPkFromHL:sum(packetBytes) 	1096012
attr interpolationmode  none
attr source  packetReceivedFromUpper
attr title  "packets received from higher layer, sum(packetBytes)"
scalar scenarioPRJP1.node[50].wlan.mac 	passedUpPk:count 	26039
attr interpolationmode  none
attr source  packetSentToUpper
attr title  "packets passed to higher layer, count"
scalar scenarioPRJP1.node[50].wlan.mac 	passedUpPk:sum(packetBytes) 	2257620
attr interpolationmode  none
attr source  packetSentToUpper
attr title  "packets passed to higher layer, sum(packetBytes)"
statistic scenarioPRJP1.node[50].wlan.radio 	radioChannel:histogram
field count 1
field mean 3
field stddev nan
field sum 3
field sqrsum 9
field min 3
field max 3
attr interpolationmode  sample-hold
attr source  radioChannelChanged
attr title  "Radio channel, histogram"
bin	-INF	0
bin	2	0
bin	3	1
bin	4	0
scalar scenarioPRJP1.node[50].wlan.radio 	transmissionState:count 	67716
attr interpolationmode  sample-hold
attr source  transmissionStateChanged
attr title  "Radio transmission state, count"
scalar scenarioPRJP1.node[50].wlan.radio 	receptionState:count 	223566
attr interpolationmode  sample-hold
attr source  receptionStateChanged
attr title  "Radio reception state, count"
scalar scenarioPRJP1.node[50].wlan.radio 	radioMode:count 	33860
attr interpolationmode  sample-hold
attr source  radioModeChanged
attr title  "Radio mode, count"
statistic scenarioPRJP1.node[50].wlan.radio 	symbolErrorRate:histogram
field count 0
field mean nan
field stddev nan
field sum 0
field sqrsum 0
field min nan
field max nan
attr source  symbolErrorRate
attr title  "Symbol error rate, histogram"
bin	-INF	0
bin	-0.5	0
bin	-0.46666666666667	0
bin	-0.43333333333333	0
bin	-0.4	0
bin	-0.36666666666667	0
bin	-0.33333333333333	0
bin	-0.3	0
bin	-0.26666666666667	0
bin	-0.23333333333333	0
bin	-0.2	0
bin	-0.16666666666667	0
bin	-0.13333333333333	0
bin	-0.1	0
bin	-0.066666666666667	0
bin	-0.033333333333333	0
bin	0	0
bin	0.033333333333333	0
bin	0.066666666666667	0
bin	0.1	0
bin	0.13333333333333	0
bin	0.16666666666667	0
bin	0.2	0
bin	0.23333333333333	0
bin	0.26666666666667	0
bin	0.3	0
bin	0.33333333333333	0
bin	0.36666666666667	0
bin	0.4	0
bin	0.43333333333333	0
bin	0.46666666666667	0
bin	0.5	0
statistic scenarioPRJP1.node[50].wlan.radio 	bitErrorRate:histogram
field count 0
field mean nan
field stddev nan
field sum 0
field sqrsum 0
field min nan
field max nan
attr source  bitErrorRate
attr title  "Bit error rate, histogram"
bin	-INF	0
bin	-0.5	0
bin	-0.46666666666667	0
bin	-0.43333333333333	0
bin	-0.4	0
bin	-0.36666666666667	0
bin	-0.33333333333333	0
bin	-0.3	0
bin	-0.26666666666667	0
bin	-0.23333333333333	0
bin	-0.2	0
bin	-0.16666666666667	0
bin	-0.13333333333333	0
bin	-0.1	0
bin	-0.066666666666667	0
bin	-0.033333333333333	0
bin	0	0
bin	0.033333333333333	0
bin	0.066666666666667	0
bin	0.1	0
bin	0.13333333333333	0
bin	0.16666666666667	0
bin	0.2	0
bin	0.23333333333333	0
bin	0.26666666666667	0
bin	0.3	0
bin	0.33333333333333	0
bin	0.36666666666667	0
bin	0.4	0
bin	0.43333333333333	0
bin	0.46666666666667	0
bin	0.5	0
statistic scenarioPRJP1.node[50].wlan.radio 	packetErrorRate:histogram
field count 92986
field mean 0.17239184324581
field stddev 0.36775763299104
field sum 16030.027936055
field sqrsum 15339.265303984
field min 0
field max 1
attr source  packetErrorRate
attr title  "Packet error rate, histogram"
bin	-INF	0
bin	-0.5	0
bin	-0.43333333333333	0
bin	-0.36666666666667	0
bin	-0.3	0
bin	-0.23333333333333	0
bin	-0.16666666666667	0
bin	-0.1	0
bin	-0.033333333333333	74139
bin	0.033333333333333	1155
bin	0.1	569
bin	0.16666666666667	357
bin	0.23333333333333	288
bin	0.3	242
bin	0.36666666666667	230
bin	0.43333333333333	198
bin	0.5	181
bin	0.56666666666667	191
bin	0.63333333333333	186
bin	0.7	167
bin	0.76666666666667	207
bin	0.83333333333333	255
bin	0.9	350
bin	0.96666666666667	14271
bin	1.0333333333333	0
bin	1.1	0
bin	1.1666666666667	0
bin	1.2333333333333	0
bin	1.3	0
bin	1.3666666666667	0
bin	1.4333333333333	0
bin	1.5	0
statistic scenarioPRJP1.node[50].wlan.radio 	minSNIR:histogram
field count 92986
field mean 875.29941151315
field stddev 9874.1233317213
field sum 81390591.078961
field sqrsum 9137121637814.6
field min 0.00016926936053867
field max 753239.71536229
attr source  minSNIR
attr title  "Min SNIR, histogram"
bin	-INF	0
bin	-402.97006824686	0
bin	-349.11000516818	0
bin	-295.24994208949	0
bin	-241.3898790108	0
bin	-187.52981593211	0
bin	-133.66975285342	0
bin	-79.809689774729	0
bin	-25.949626696039	58265
bin	27.91043638265	13679
bin	81.770499461339	4230
bin	135.63056254003	2386
bin	189.49062561872	1616
bin	243.35068869741	1243
bin	297.2107517761	1054
bin	351.07081485479	831
bin	404.93087793348	649
bin	458.79094101216	550
bin	512.65100409085	497
bin	566.51106716954	449
bin	620.37113024823	384
bin	674.23119332692	330
bin	728.09125640561	270
bin	781.9513194843	256
bin	835.81138256299	223
bin	889.67144564168	212
bin	943.53150872037	192
bin	997.39157179906	150
bin	1051.2516348777	144
bin	1105.1116979564	124
bin	1158.9717610351	96
bin	1212.8318241138	5156
scalar scenarioPRJP1.node[50].lo0.lo 	droppedPkBitError:count 	0
attr interpolationmode  none
attr source  dropPkBitError
attr title  "packets dropped/bit error, count"
scalar scenarioPRJP1.node[50].lo0.lo 	droppedPkBitError:sum(packetBytes) 	0
attr interpolationmode  none
attr source  dropPkBitError
attr title  "packets dropped/bit error, sum(packetBytes)"
scalar scenarioPRJP1.node[50].lo0.lo 	rcvdPkFromHL:count 	42
attr interpolationmode  none
attr source  packetReceivedFromUpper
attr title  "packets received from higher layer, count"
scalar scenarioPRJP1.node[50].lo0.lo 	rcvdPkFromHL:sum(packetBytes) 	21840
attr interpolationmode  none
attr source  packetReceivedFromUpper
attr title  "packets received from higher layer, sum(packetBytes)"
scalar scenarioPRJP1.node[50].lo0.lo 	passedUpPk:count 	42
attr interpolationmode  none
attr source  packetSentToUpper
attr title  "packets passed to higher layer, count"
scalar scenarioPRJP1.node[50].lo0.lo 	passedUpPk:sum(packetBytes) 	21840
attr interpolationmode  none
attr source  packetSentToUpper
attr title  "packets passed to higher layer, sum(packetBytes)"
scalar scenarioPRJP1.node[62].app 	"Total sent" 	368
scalar scenarioPRJP1.node[62].app 	"Total received" 	32
scalar scenarioPRJP1.node[62].app 	"Total deleted" 	0
scalar scenarioPRJP1.node[62].app 	dropPk:count 	0
attr interpolationmode  none
attr source  dropPk
attr title  "packets dropped, count"
scalar scenarioPRJP1.node[62].app 	dropPk:sum(packetBytes) 	0
attr interpolationmode  none
attr source  dropPk
attr title  "packets dropped, sum(packetBytes)"
scalar scenarioPRJP1.node[62].app 	outOfOrderPk:count 	8
attr interpolationmode  none
attr source  outOfOrderPk
attr title  "packets received out of order, count"
scalar scenarioPRJP1.node[62].app 	outOfOrderPk:sum(packetBytes) 	4096
attr interpolationmode  none
attr source  outOfOrderPk
attr title  "packets received out of order, sum(packetBytes)"
scalar scenarioPRJP1.node[62].app 	rcvdPk:count 	32
attr interpolationmode  none
attr source  rcvdPk
attr title  "packets received, count"
scalar scenarioPRJP1.node[62].app 	rcvdPk:sum(packetBytes) 	16384
attr interpolationmode  none
attr source  rcvdPk
attr title  "packets received, sum(packetBytes)"
statistic scenarioPRJP1.node[62].app 	endToEndDelay:histogram
field count 32
field mean 0.52263072985778
field stddev 0.75969046459081
field sum 16.724183355449
field sqrsum 26.63158981503
field min 0.002060108893
field max 3.191341678701
attr interpolationmode  none
attr source  messageAge(rcvdPk)
attr title  "delay, histogram"
attr unit  s
bin	-INF	0
bin	-1.592580676011	0
bin	-1.3799619046905	0
bin	-1.1673431333699	0
bin	-0.9547243620494	0
bin	-0.74210559072887	0
bin	-0.52948681940833	0
bin	-0.3168680480878	0
bin	-0.10424927676727	13
bin	0.10836949455327	6
bin	0.3209882658738	2
bin	0.53360703719433	2
bin	0.74622580851487	2
bin	0.9588445798354	1
bin	1.1714633511559	3
bin	1.3840821224765	1
bin	1.596700893797	0
bin	1.8093196651175	0
bin	2.0219384364381	0
bin	2.2345572077586	1
bin	2.4471759790791	0
bin	2.6597947503997	0
bin	2.8724135217202	0
bin	3.0850322930407	1
bin	3.2976510643613	0
bin	3.5102698356818	0
bin	3.7228886070023	0
bin	3.9355073783229	0
bin	4.1481261496434	0
bin	4.3607449209639	0
bin	4.5733636922845	0
bin	4.785982463605	0
scalar scenarioPRJP1.node[62].app 	sentPk:count 	368
attr interpolationmode  none
attr source  sentPk
attr title  "packets sent, count"
scalar scenarioPRJP1.node[62].app 	sentPk:sum(packetBytes) 	188416
attr interpolationmode  none
attr source  sentPk
attr title  "packets sent, sum(packetBytes)"
scalar scenarioPRJP1.node[62].udp 	droppedPkBadChecksum:count 	0
attr interpolationmode  none
attr title  "packets dropped (checksum error), count"
scalar scenarioPRJP1.node[62].udp 	droppedPkWrongPort:count 	0
attr interpolationmode  none
attr title  "packets dropped (wrong port), count"
scalar scenarioPRJP1.node[62].udp 	passedUpPk:count 	40
attr interpolationmode  none
attr title  "packets passed up, count"
scalar scenarioPRJP1.node[62].udp 	rcvdPk:count 	40
attr interpolationmode  none
attr source  rcvdPk
attr title  "packets received, count"
scalar scenarioPRJP1.node[62].udp 	rcvdPk:sum(packetBytes) 	20800
attr interpolationmode  none
attr source  rcvdPk
attr title  "packets received, sum(packetBytes)"
scalar scenarioPRJP1.node[62].udp 	sentPk:count 	368
attr interpolationmode  none
attr source  sentPk
attr title  "packets sent, count"
scalar scenarioPRJP1.node[62].udp 	sentPk:sum(packetBytes) 	191360
attr interpolationmode  none
attr source  sentPk
attr title  "packets sent, sum(packetBytes)"
scalar scenarioPRJP1.node[62].networkLayer.arp 	failedARPResolution:count 	3
attr title  "ARP failed resolutions, count"
scalar scenarioPRJP1.node[62].networkLayer.arp 	completedARPResolution:count 	167
attr title  "ARP completed resolutions, count"
scalar scenarioPRJP1.node[62].networkLayer.arp 	initiatedARPResolution:count 	20
attr title  "ARP initiated resolutions, count"
scalar scenarioPRJP1.node[62].networkLayer.arp 	sentReply:count 	22
attr title  "ARP replies sent, count"
scalar scenarioPRJP1.node[62].networkLayer.arp 	sentReq:count 	34
attr title  "ARP request sent, count"
scalar scenarioPRJP1.node[62].mobility 	startTime 	7.3
scalar scenarioPRJP1.node[62].mobility 	totalTime 	152.6
scalar scenarioPRJP1.node[62].mobility 	stopTime 	160
scalar scenarioPRJP1.node[62].mobility 	minSpeed 	2.475710480944e-13
scalar scenarioPRJP1.node[62].mobility 	maxSpeed 	18.242060793043
scalar scenarioPRJP1.node[62].mobility 	totalDistance 	1483.729128424
scalar scenarioPRJP1.node[62].mobility 	totalCO2Emission 	455.30693433263
scalar scenarioPRJP1.node[62].wlan.mgmt 	dataQueueLen:max 	40
attr interpolationmode  sample-hold
attr title  "data queue length, max"
scalar scenarioPRJP1.node[62].wlan.mgmt 	dataQueueLen:timeavg 	0.17197650146664
attr interpolationmode  sample-hold
attr title  "data queue length, timeavg"
scalar scenarioPRJP1.node[62].wlan.mgmt 	dropPkByQueue:count 	0
attr interpolationmode  none
attr source  dropPkByQueue
attr title  "packets dropped by queue, count"
scalar scenarioPRJP1.node[62].wlan.mgmt 	dropPkByQueue:sum(packetBytes) 	0
attr interpolationmode  none
attr source  dropPkByQueue
attr title  "packets dropped by queue, sum(packetBytes)"
scalar scenarioPRJP1.node[62].wlan.mac 	"number of received packets" 	2437
scalar scenarioPRJP1.node[62].wlan.mac 	"number of collisions" 	19292
scalar scenarioPRJP1.node[62].wlan.mac 	"number of internal collisions" 	0
scalar scenarioPRJP1.node[62].wlan.mac 	"number of retry for AC 0" 	5995
scalar scenarioPRJP1.node[62].wlan.mac 	"number of retry for AC 1" 	0
scalar scenarioPRJP1.node[62].wlan.mac 	"number of retry for AC 2" 	0
scalar scenarioPRJP1.node[62].wlan.mac 	"number of retry for AC 3" 	0
scalar scenarioPRJP1.node[62].wlan.mac 	"sent and received bits" 	4989824
scalar scenarioPRJP1.node[62].wlan.mac 	"sent packet within AC 0" 	825
scalar scenarioPRJP1.node[62].wlan.mac 	"sent packet within AC 1" 	0
scalar scenarioPRJP1.node[62].wlan.mac 	"sent packet within AC 2" 	0
scalar scenarioPRJP1.node[62].wlan.mac 	"sent packet within AC 3" 	0
scalar scenarioPRJP1.node[62].wlan.mac 	"sent in TXOP " 	0
scalar scenarioPRJP1.node[62].wlan.mac 	"sentWithoutRetry AC 0" 	723
scalar scenarioPRJP1.node[62].wlan.mac 	"sentWithoutRetry AC 1" 	0
scalar scenarioPRJP1.node[62].wlan.mac 	"sentWithoutRetry AC 2" 	0
scalar scenarioPRJP1.node[62].wlan.mac 	"sentWithoutRetry AC 3" 	0
scalar scenarioPRJP1.node[62].wlan.mac 	"numGivenUp AC 0" 	962
scalar scenarioPRJP1.node[62].wlan.mac 	"numGivenUp AC 1" 	0
scalar scenarioPRJP1.node[62].wlan.mac 	"numGivenUp AC 2" 	0
scalar scenarioPRJP1.node[62].wlan.mac 	"numGivenUp AC 3" 	0
scalar scenarioPRJP1.node[62].wlan.mac 	"numDropped AC 0" 	94
scalar scenarioPRJP1.node[62].wlan.mac 	"numDropped AC 1" 	0
scalar scenarioPRJP1.node[62].wlan.mac 	"numDropped AC 2" 	0
scalar scenarioPRJP1.node[62].wlan.mac 	"numDropped AC 3" 	0
scalar scenarioPRJP1.node[62].wlan.mac 	rcvdPkFromLL:count 	82527
attr interpolationmode  none
attr source  packetReceivedFromLower
attr title  "packets received from lower layer, count"
scalar scenarioPRJP1.node[62].wlan.mac 	rcvdPkFromLL:sum(packetBytes) 	14630412
attr interpolationmode  none
attr source  packetReceivedFromLower
attr title  "packets received from lower layer, sum(packetBytes)"
scalar scenarioPRJP1.node[62].wlan.mac 	sentDownPk:count 	15844
attr interpolationmode  none
attr source  packetSentToLower
attr title  "packets sent to lower layer, count"
scalar scenarioPRJP1.node[62].wlan.mac 	sentDownPk:sum(packetBytes) 	2816958
attr interpolationmode  none
attr source  packetSentToLower
attr title  "packets sent to lower layer, sum(packetBytes)"
scalar scenarioPRJP1.node[62].wlan.mac 	rcvdPkFromHL:count 	7506
attr interpolationmode  none
attr source  packetReceivedFromUpper
attr title  "packets received from higher layer, count"
scalar scenarioPRJP1.node[62].wlan.mac 	rcvdPkFromHL:sum(packetBytes) 	929756
attr interpolationmode  none
attr source  packetReceivedFromUpper
attr title  "packets received from higher layer, sum(packetBytes)"
scalar scenarioPRJP1.node[62].wlan.mac 	passedUpPk:count 	24864
attr interpolationmode  none
attr source  packetSentToUpper
attr title  "packets passed to higher layer, count"
scalar scenarioPRJP1.node[62].wlan.mac 	passedUpPk:sum(packetBytes) 	2053032
attr interpolationmode  none
attr source  packetSentToUpper
attr title  "packets passed to higher layer, sum(packetBytes)"
statistic scenarioPRJP1.node[62].wlan.radio 	radioChannel:histogram
field count 1
field mean 3
field stddev nan
field sum 3
field sqrsum 9
field min 3
field max 3
attr interpolationmode  sample-hold
attr source  radioChannelChanged
attr title  "Radio channel, histogram"
bin	-INF	0
bin	2	0
bin	3	1
bin	4	0
scalar scenarioPRJP1.node[62].wlan.radio 	transmissionState:count 	63376
attr interpolationmode  sample-hold
attr source  transmissionStateChanged
attr title  "Radio transmission state, count"
scalar scenarioPRJP1.node[62].wlan.radio 	receptionState:count 	200706
attr interpolationmode  sample-hold
attr source  receptionStateChanged
attr title  "Radio reception state, count"
scalar scenarioPRJP1.node[62].wlan.radio 	radioMode:count 	31690
attr interpolationmode  sample-hold
attr source  radioModeChanged
attr title  "Radio mode, count"
statistic scenarioPRJP1.node[62].wlan.radio 	symbolErrorRate:histogram
field count 0
field mean nan
field stddev nan
field sum 0
field sqrsum 0
field min nan
field max nan
attr source  symbolErrorRate
attr title  "Symbol error rate, histogram"
bin	-INF	0
bin	-0.5	0
bin	-0.46666666666667	0
bin	-0.43333333333333	0
bin	-0.4	0
bin	-0.36666666666667	0
bin	-0.33333333333333	0
bin	-0.3	0
bin	-0.26666666666667	0
bin	-0.23333333333333	0
bin	-0.2	0
bin	-0.16666666666667	0
bin	-0.13333333333333	0
bin	-0.1	0
bin	-0.066666666666667	0
bin	-0.033333333333333	0
bin	0	0
bin	0.033333333333333	0
bin	0.066666666666667	0
bin	0.1	0
bin	0.13333333333333	0
bin	0.16666666666667	0
bin	0.2	0
bin	0.23333333333333	0
bin	0.26666666666667	0
bin	0.3	0
bin	0.33333333333333	0
bin	0.36666666666667	0
bin	0.4	0
bin	0.43333333333333	0
bin	0.46666666666667	0
bin	0.5	0
statistic scenarioPRJP1.node[62].wlan.radio 	bitErrorRate:histogram
field count 0
field mean nan
field stddev nan
field sum 0
field sqrsum 0
field min nan
field max nan
attr source  bitErrorRate
attr title  "Bit error rate, histogram"
bin	-INF	0
bin	-0.5	0
bin	-0.46666666666667	0
bin	-0.43333333333333	0
bin	-0.4	0
bin	-0.36666666666667	0
bin	-0.33333333333333	0
bin	-0.3	0
bin	-0.26666666666667	0
bin	-0.23333333333333	0
bin	-0.2	0
bin	-0.16666666666667	0
bin	-0.13333333333333	0
bin	-0.1	0
bin	-0.066666666666667	0
bin	-0.033333333333333	0
bin	0	0
bin	0.033333333333333	0
bin	0.066666666666667	0
bin	0.1	0
bin	0.13333333333333	0
bin	0.16666666666667	0
bin	0.2	0
bin	0.23333333333333	0
bin	0.26666666666667	0
bin	0.3	0
bin	0.33333333333333	0
bin	0.36666666666667	0
bin	0.4	0
bin	0.43333333333333	0
bin	0.46666666666667	0
bin	0.5	0
statistic scenarioPRJP1.node[62].wlan.radio 	packetErrorRate:histogram
field count 82527
field mean 0.20676716359225
field stddev 0.3940196365418
field sum 17063.873709777
field sqrsum 16340.531908584
field min 0
field max 1
attr source  packetErrorRate
attr title  "Packet error rate, histogram"
bin	-INF	0
bin	-0.036534708139668	0
bin	-0.031663413721046	0
bin	-0.026792119302423	0
bin	-0.021920824883801	0
bin	-0.017049530465178	0
bin	-0.012178236046556	0
bin	-0.0073069416279336	0
bin	-0.0024356472093112	59643
bin	0.0024356472093112	1171
bin	0.0073069416279336	565
bin	0.012178236046556	392
bin	0.017049530465178	265
bin	0.021920824883801	223
bin	0.026792119302423	179
bin	0.031663413721046	147
bin	0.036534708139668	133
bin	0.041406002558291	115
bin	0.046277296976913	107
bin	0.051148591395535	96
bin	0.056019885814158	95
bin	0.06089118023278	86
bin	0.065762474651403	70
bin	0.070633769070025	82
bin	0.075505063488647	78
bin	0.08037635790727	74
bin	0.085247652325892	59
bin	0.090118946744515	62
bin	0.094990241163137	48
bin	0.09986153558176	43
bin	0.10473283000038	57
bin	0.109604124419	18737
statistic scenarioPRJP1.node[62].wlan.radio 	minSNIR:histogram
field count 82527
field mean 448.92045593327
field stddev 4434.8358705528
field sum 37048058.466805
field sqrsum 1639733952193.7
field min 0.0002865794650782
field max 662915.54562752
attr source  minSNIR
attr title  "Min SNIR, histogram"
bin	-INF	0
bin	-2387.2377853917	0
bin	-2068.6612985012	0
bin	-1750.0848116107	0
bin	-1431.5083247202	0
bin	-1112.9318378298	0
bin	-794.35535093927	0
bin	-475.77886404878	0
bin	-157.20237715829	69536
bin	161.3741097322	5564
bin	479.95059662269	1952
bin	798.52708351317	1004
bin	1117.1035704037	640
bin	1435.6800572942	499
bin	1754.2565441846	371
bin	2072.8330310751	286
bin	2391.4095179656	218
bin	2709.9860048561	183
bin	3028.5624917466	158
bin	3347.1389786371	154
bin	3665.7154655276	147
bin	3984.2919524181	128
bin	4302.8684393086	108
bin	4621.444926199	81
bin	4940.0214130895	93
bin	5258.59789998	74
bin	5577.1743868705	63
bin	5895.750873761	72
bin	6214.3273606515	58
bin	6532.903847542	60
bin	6851.4803344325	55
bin	7170.0568213229	1023
scalar scenarioPRJP1.node[62].lo0.lo 	droppedPkBitError:count 	0
attr interpolationmode  none
attr source  dropPkBitError
attr title  "packets dropped/bit error, count"
scalar scenarioPRJP1.node[62].lo0.lo 	droppedPkBitError:sum(packetBytes) 	0
attr interpolationmode  none
attr source  dropPkBitError
attr title  "packets dropped/bit error, sum(packetBytes)"
scalar scenarioPRJP1.node[62].lo0.lo 	rcvdPkFromHL:count 	40
attr interpolationmode  none
attr source  packetReceivedFromUpper
attr title  "packets received from higher layer, count"
scalar scenarioPRJP1.node[62].lo0.lo 	rcvdPkFromHL:sum(packetBytes) 	20800
attr interpolationmode  none
attr source  packetReceivedFromUpper
attr title  "packets received from higher layer, sum(packetBytes)"
scalar scenarioPRJP1.node[62].lo0.lo 	passedUpPk:count 	40
attr interpolationmode  none
attr source  packetSentToUpper
attr title  "packets passed to higher layer, count"
scalar scenarioPRJP1.node[62].lo0.lo 	passedUpPk:sum(packetBytes) 	20800
attr interpolationmode  none
attr source  packetSentToUpper
attr title  "packets passed to higher layer, sum(packetBytes)"
scalar scenarioPRJP1.node[33].app 	"Total sent" 	619
scalar scenarioPRJP1.node[33].app 	"Total received" 	31
scalar scenarioPRJP1.node[33].app 	"Total deleted" 	2
scalar scenarioPRJP1.node[33].app 	dropPk:count 	2
attr interpolationmode  none
attr source  dropPk
attr title  "packets dropped, count"
scalar scenarioPRJP1.node[33].app 	dropPk:sum(packetBytes) 	1024
attr interpolationmode  none
attr source  dropPk
attr title  "packets dropped, sum(packetBytes)"
scalar scenarioPRJP1.node[33].app 	outOfOrderPk:count 	4
attr interpolationmode  none
attr source  outOfOrderPk
attr title  "packets received out of order, count"
scalar scenarioPRJP1.node[33].app 	outOfOrderPk:sum(packetBytes) 	2048
attr interpolationmode  none
attr source  outOfOrderPk
attr title  "packets received out of order, sum(packetBytes)"
scalar scenarioPRJP1.node[33].app 	rcvdPk:count 	31
attr interpolationmode  none
attr source  rcvdPk
attr title  "packets received, count"
scalar scenarioPRJP1.node[33].app 	rcvdPk:sum(packetBytes) 	15872
attr interpolationmode  none
attr source  rcvdPk
attr title  "packets received, sum(packetBytes)"
statistic scenarioPRJP1.node[33].app 	endToEndDelay:histogram
field count 31
field mean 2.0175180001743
field stddev 3.7344217080478
field sum 62.543058005402
field sqrsum 544.558910118
field min 0.001016316065
field max 14.311410008145
attr interpolationmode  none
attr source  messageAge(rcvdPk)
attr title  "delay, histogram"
attr unit  s
bin	-INF	0
bin	-7.154180529975	0
bin	-6.2001542838363	0
bin	-5.2461280376977	0
bin	-4.292101791559	0
bin	-3.3380755454203	0
bin	-2.3840492992817	0
bin	-1.430023053143	0
bin	-0.47599680700433	19
bin	0.47802943913433	3
bin	1.432055685273	1
bin	2.3860819314117	3
bin	3.3401081775503	0
bin	4.294134423689	0
bin	5.2481606698277	0
bin	6.2021869159663	1
bin	7.156213162105	1
bin	8.1102394082437	0
bin	9.0642656543823	0
bin	10.018291900521	2
bin	10.97231814666	0
bin	11.926344392798	0
bin	12.880370638937	0
bin	13.834396885076	1
bin	14.788423131214	0
bin	15.742449377353	0
bin	16.696475623492	0
bin	17.65050186963	0
bin	18.604528115769	0
bin	19.558554361908	0
bin	20.512580608046	0
bin	21.466606854185	0
scalar scenarioPRJP1.node[33].app 	sentPk:count 	619
attr interpolationmode  none
attr source  sentPk
attr title  "packets sent, count"
scalar scenarioPRJP1.node[33].app 	sentPk:sum(packetBytes) 	316928
attr interpolationmode  none
attr source  sentPk
attr title  "packets sent, sum(packetBytes)"
scalar scenarioPRJP1.node[33].udp 	droppedPkBadChecksum:count 	0
attr interpolationmode  none
attr title  "packets dropped (checksum error), count"
scalar scenarioPRJP1.node[33].udp 	droppedPkWrongPort:count 	0
attr interpolationmode  none
attr title  "packets dropped (wrong port), count"
scalar scenarioPRJP1.node[33].udp 	passedUpPk:count 	37
attr interpolationmode  none
attr title  "packets passed up, count"
scalar scenarioPRJP1.node[33].udp 	rcvdPk:count 	37
attr interpolationmode  none
attr source  rcvdPk
attr title  "packets received, count"
scalar scenarioPRJP1.node[33].udp 	rcvdPk:sum(packetBytes) 	19240
attr interpolationmode  none
attr source  rcvdPk
attr title  "packets received, sum(packetBytes)"
scalar scenarioPRJP1.node[33].udp 	sentPk:count 	619
attr interpolationmode  none
attr source  sentPk
attr title  "packets sent, count"
scalar scenarioPRJP1.node[33].udp 	sentPk:sum(packetBytes) 	321880
attr interpolationmode  none
attr source  sentPk
attr title  "packets sent, sum(packetBytes)"
scalar scenarioPRJP1.node[33].networkLayer.arp 	failedARPResolution:count 	8
attr title  "ARP failed resolutions, count"
scalar scenarioPRJP1.node[33].networkLayer.arp 	completedARPResolution:count 	239
attr title  "ARP completed resolutions, count"
scalar scenarioPRJP1.node[33].networkLayer.arp 	initiatedARPResolution:count 	32
attr title  "ARP initiated resolutions, count"
scalar scenarioPRJP1.node[33].networkLayer.arp 	sentReply:count 	10
attr title  "ARP replies sent, count"
scalar scenarioPRJP1.node[33].networkLayer.arp 	sentReq:count 	69
attr title  "ARP request sent, count"
scalar scenarioPRJP1.node[33].mobility 	startTime 	2.5
scalar scenarioPRJP1.node[33].mobility 	totalTime 	244.8
scalar scenarioPRJP1.node[33].mobility 	stopTime 	247.4
scalar scenarioPRJP1.node[33].mobility 	minSpeed 	2.475732963744e-13
scalar scenarioPRJP1.node[33].mobility 	maxSpeed 	16.656976698625
scalar scenarioPRJP1.node[33].mobility 	totalDistance 	2233.8446233349
scalar scenarioPRJP1.node[33].mobility 	totalCO2Emission 	632.48376315576
scalar scenarioPRJP1.node[33].wlan.mgmt 	dataQueueLen:max 	16
attr interpolationmode  sample-hold
attr title  "data queue length, max"
scalar scenarioPRJP1.node[33].wlan.mgmt 	dataQueueLen:timeavg 	0.00049973461636178
attr interpolationmode  sample-hold
attr title  "data queue length, timeavg"
scalar scenarioPRJP1.node[33].wlan.mgmt 	dropPkByQueue:count 	0
attr interpolationmode  none
attr source  dropPkByQueue
attr title  "packets dropped by queue, count"
scalar scenarioPRJP1.node[33].wlan.mgmt 	dropPkByQueue:sum(packetBytes) 	0
attr interpolationmode  none
attr source  dropPkByQueue
attr title  "packets dropped by queue, sum(packetBytes)"
scalar scenarioPRJP1.node[33].wlan.mac 	"number of received packets" 	3870
scalar scenarioPRJP1.node[33].wlan.mac 	"number of collisions" 	26695
scalar scenarioPRJP1.node[33].wlan.mac 	"number of internal collisions" 	0
scalar scenarioPRJP1.node[33].wlan.mac 	"number of retry for AC 0" 	8339
scalar scenarioPRJP1.node[33].wlan.mac 	"number of retry for AC 1" 	0
scalar scenarioPRJP1.node[33].wlan.mac 	"number of retry for AC 2" 	0
scalar scenarioPRJP1.node[33].wlan.mac 	"number of retry for AC 3" 	0
scalar scenarioPRJP1.node[33].wlan.mac 	"sent and received bits" 	8911264
scalar scenarioPRJP1.node[33].wlan.mac 	"sent packet within AC 0" 	2067
scalar scenarioPRJP1.node[33].wlan.mac 	"sent packet within AC 1" 	0
scalar scenarioPRJP1.node[33].wlan.mac 	"sent packet within AC 2" 	0
scalar scenarioPRJP1.node[33].wlan.mac 	"sent packet within AC 3" 	0
scalar scenarioPRJP1.node[33].wlan.mac 	"sent in TXOP " 	0
scalar scenarioPRJP1.node[33].wlan.mac 	"sentWithoutRetry AC 0" 	1796
scalar scenarioPRJP1.node[33].wlan.mac 	"sentWithoutRetry AC 1" 	0
scalar scenarioPRJP1.node[33].wlan.mac 	"sentWithoutRetry AC 2" 	0
scalar scenarioPRJP1.node[33].wlan.mac 	"sentWithoutRetry AC 3" 	0
scalar scenarioPRJP1.node[33].wlan.mac 	"numGivenUp AC 0" 	1293
scalar scenarioPRJP1.node[33].wlan.mac 	"numGivenUp AC 1" 	0
scalar scenarioPRJP1.node[33].wlan.mac 	"numGivenUp AC 2" 	0
scalar scenarioPRJP1.node[33].wlan.mac 	"numGivenUp AC 3" 	0
scalar scenarioPRJP1.node[33].wlan.mac 	"numDropped AC 0" 	22
scalar scenarioPRJP1.node[33].wlan.mac 	"numDropped AC 1" 	0
scalar scenarioPRJP1.node[33].wlan.mac 	"numDropped AC 2" 	0
scalar scenarioPRJP1.node[33].wlan.mac 	"numDropped AC 3" 	0
scalar scenarioPRJP1.node[33].wlan.mac 	rcvdPkFromLL:count 	126934
attr interpolationmode  none
attr source  packetReceivedFromLower
attr title  "packets received from lower layer, count"
scalar scenarioPRJP1.node[33].wlan.mac 	rcvdPkFromLL:sum(packetBytes) 	26281798
attr interpolationmode  none
attr source  packetReceivedFromLower
attr title  "packets received from lower layer, sum(packetBytes)"
scalar scenarioPRJP1.node[33].wlan.mac 	sentDownPk:count 	22896
attr interpolationmode  none
attr source  packetSentToLower
attr title  "packets sent to lower layer, count"
scalar scenarioPRJP1.node[33].wlan.mac 	sentDownPk:sum(packetBytes) 	4458020
attr interpolationmode  none
attr source  packetSentToLower
attr title  "packets sent to lower layer, sum(packetBytes)"
scalar scenarioPRJP1.node[33].wlan.mac 	rcvdPkFromHL:count 	10709
attr interpolationmode  none
attr source  packetReceivedFromUpper
attr title  "packets received from higher layer, count"
scalar scenarioPRJP1.node[33].wlan.mac 	rcvdPkFromHL:sum(packetBytes) 	1555164
attr interpolationmode  none
attr source  packetReceivedFromUpper
attr title  "packets received from higher layer, sum(packetBytes)"
scalar scenarioPRJP1.node[33].wlan.mac 	passedUpPk:count 	30364
attr interpolationmode  none
attr source  packetSentToUpper
attr title  "packets passed to higher layer, count"
scalar scenarioPRJP1.node[33].wlan.mac 	passedUpPk:sum(packetBytes) 	2703232
attr interpolationmode  none
attr source  packetSentToUpper
attr title  "packets passed to higher layer, sum(packetBytes)"
statistic scenarioPRJP1.node[33].wlan.radio 	radioChannel:histogram
field count 1
field mean 3
field stddev nan
field sum 3
field sqrsum 9
field min 3
field max 3
attr interpolationmode  sample-hold
attr source  radioChannelChanged
attr title  "Radio channel, histogram"
bin	-INF	0
bin	2	0
bin	3	1
bin	4	0
scalar scenarioPRJP1.node[33].wlan.radio 	transmissionState:count 	91584
attr interpolationmode  sample-hold
attr source  transmissionStateChanged
attr title  "Radio transmission state, count"
scalar scenarioPRJP1.node[33].wlan.radio 	receptionState:count 	304703
attr interpolationmode  sample-hold
attr source  receptionStateChanged
attr title  "Radio reception state, count"
scalar scenarioPRJP1.node[33].wlan.radio 	radioMode:count 	45794
attr interpolationmode  sample-hold
attr source  radioModeChanged
attr title  "Radio mode, count"
statistic scenarioPRJP1.node[33].wlan.radio 	symbolErrorRate:histogram
field count 0
field mean nan
field stddev nan
field sum 0
field sqrsum 0
field min nan
field max nan
attr source  symbolErrorRate
attr title  "Symbol error rate, histogram"
bin	-INF	0
bin	-0.5	0
bin	-0.46666666666667	0
bin	-0.43333333333333	0
bin	-0.4	0
bin	-0.36666666666667	0
bin	-0.33333333333333	0
bin	-0.3	0
bin	-0.26666666666667	0
bin	-0.23333333333333	0
bin	-0.2	0
bin	-0.16666666666667	0
bin	-0.13333333333333	0
bin	-0.1	0
bin	-0.066666666666667	0
bin	-0.033333333333333	0
bin	0	0
bin	0.033333333333333	0
bin	0.066666666666667	0
bin	0.1	0
bin	0.13333333333333	0
bin	0.16666666666667	0
bin	0.2	0
bin	0.23333333333333	0
bin	0.26666666666667	0
bin	0.3	0
bin	0.33333333333333	0
bin	0.36666666666667	0
bin	0.4	0
bin	0.43333333333333	0
bin	0.46666666666667	0
bin	0.5	0
statistic scenarioPRJP1.node[33].wlan.radio 	bitErrorRate:histogram
field count 0
field mean nan
field stddev nan
field sum 0
field sqrsum 0
field min nan
field max nan
attr source  bitErrorRate
attr title  "Bit error rate, histogram"
bin	-INF	0
bin	-0.5	0
bin	-0.46666666666667	0
bin	-0.43333333333333	0
bin	-0.4	0
bin	-0.36666666666667	0
bin	-0.33333333333333	0
bin	-0.3	0
bin	-0.26666666666667	0
bin	-0.23333333333333	0
bin	-0.2	0
bin	-0.16666666666667	0
bin	-0.13333333333333	0
bin	-0.1	0
bin	-0.066666666666667	0
bin	-0.033333333333333	0
bin	0	0
bin	0.033333333333333	0
bin	0.066666666666667	0
bin	0.1	0
bin	0.13333333333333	0
bin	0.16666666666667	0
bin	0.2	0
bin	0.23333333333333	0
bin	0.26666666666667	0
bin	0.3	0
bin	0.33333333333333	0
bin	0.36666666666667	0
bin	0.4	0
bin	0.43333333333333	0
bin	0.46666666666667	0
bin	0.5	0
statistic scenarioPRJP1.node[33].wlan.radio 	packetErrorRate:histogram
field count 126934
field mean 0.19143913604219
field stddev 0.38380912893013
field sum 24300.135294379
field sqrsum 23350.426999649
field min 0
field max 1
attr source  packetErrorRate
attr title  "Packet error rate, histogram"
bin	-INF	0
bin	-0.5	0
bin	-0.43333333333333	0
bin	-0.36666666666667	0
bin	-0.3	0
bin	-0.23333333333333	0
bin	-0.16666666666667	0
bin	-0.1	0
bin	-0.033333333333333	98695
bin	0.033333333333333	1676
bin	0.1	761
bin	0.16666666666667	499
bin	0.23333333333333	400
bin	0.3	338
bin	0.36666666666667	318
bin	0.43333333333333	251
bin	0.5	235
bin	0.56666666666667	247
bin	0.63333333333333	245
bin	0.7	267
bin	0.76666666666667	282
bin	0.83333333333333	340
bin	0.9	550
bin	0.96666666666667	21830
bin	1.0333333333333	0
bin	1.1	0
bin	1.1666666666667	0
bin	1.2333333333333	0
bin	1.3	0
bin	1.3666666666667	0
bin	1.4333333333333	0
bin	1.5	0
statistic scenarioPRJP1.node[33].wlan.radio 	minSNIR:histogram
field count 126934
field mean 2556.7013231675
field stddev 22937.748879084
field sum 324532325.75494
field sqrsum 67614301927253
field min 0.00016824369646008
field max 753239.71923443
attr source  minSNIR
attr title  "Min SNIR, histogram"
bin	-INF	0
bin	-49.08081196136	0
bin	-42.497085463556	0
bin	-35.913358965752	0
bin	-29.329632467948	0
bin	-22.745905970143	0
bin	-16.162179472339	0
bin	-9.5784529745347	0
bin	-2.9947264767305	28477
bin	3.5890000210738	26356
bin	10.172726518878	10920
bin	16.756453016682	5909
bin	23.340179514487	4023
bin	29.923906012291	2748
bin	36.507632510095	2195
bin	43.091359007899	1891
bin	49.675085505704	1641
bin	56.258812003508	1441
bin	62.842538501312	1312
bin	69.426264999116	1171
bin	76.009991496921	1013
bin	82.593717994725	910
bin	89.177444492529	880
bin	95.761170990334	797
bin	102.34489748814	634
bin	108.92862398594	603
bin	115.51235048375	569
bin	122.09607698155	546
bin	128.67980347935	507
bin	135.26352997716	455
bin	141.84725647496	432
bin	148.43098297277	31504
scalar scenarioPRJP1.node[33].lo0.lo 	droppedPkBitError:count 	0
attr interpolationmode  none
attr source  dropPkBitError
attr title  "packets dropped/bit error, count"
scalar scenarioPRJP1.node[33].lo0.lo 	droppedPkBitError:sum(packetBytes) 	0
attr interpolationmode  none
attr source  dropPkBitError
attr title  "packets dropped/bit error, sum(packetBytes)"
scalar scenarioPRJP1.node[33].lo0.lo 	rcvdPkFromHL:count 	37
attr interpolationmode  none
attr source  packetReceivedFromUpper
attr title  "packets received from higher layer, count"
scalar scenarioPRJP1.node[33].lo0.lo 	rcvdPkFromHL:sum(packetBytes) 	19240
attr interpolationmode  none
attr source  packetReceivedFromUpper
attr title  "packets received from higher layer, sum(packetBytes)"
scalar scenarioPRJP1.node[33].lo0.lo 	passedUpPk:count 	37
attr interpolationmode  none
attr source  packetSentToUpper
attr title  "packets passed to higher layer, count"
scalar scenarioPRJP1.node[33].lo0.lo 	passedUpPk:sum(packetBytes) 	19240
attr interpolationmode  none
attr source  packetSentToUpper
attr title  "packets passed to higher layer, sum(packetBytes)"
scalar scenarioPRJP1.node[80].app 	"Total sent" 	743
scalar scenarioPRJP1.node[80].app 	"Total received" 	47
scalar scenarioPRJP1.node[80].app 	"Total deleted" 	1
scalar scenarioPRJP1.node[80].app 	dropPk:count 	1
attr interpolationmode  none
attr source  dropPk
attr title  "packets dropped, count"
scalar scenarioPRJP1.node[80].app 	dropPk:sum(packetBytes) 	512
attr interpolationmode  none
attr source  dropPk
attr title  "packets dropped, sum(packetBytes)"
scalar scenarioPRJP1.node[80].app 	outOfOrderPk:count 	5
attr interpolationmode  none
attr source  outOfOrderPk
attr title  "packets received out of order, count"
scalar scenarioPRJP1.node[80].app 	outOfOrderPk:sum(packetBytes) 	2560
attr interpolationmode  none
attr source  outOfOrderPk
attr title  "packets received out of order, sum(packetBytes)"
scalar scenarioPRJP1.node[80].app 	rcvdPk:count 	47
attr interpolationmode  none
attr source  rcvdPk
attr title  "packets received, count"
scalar scenarioPRJP1.node[80].app 	rcvdPk:sum(packetBytes) 	24064
attr interpolationmode  none
attr source  rcvdPk
attr title  "packets received, sum(packetBytes)"
statistic scenarioPRJP1.node[80].app 	endToEndDelay:histogram
field count 47
field mean 1.371123965381
field stddev 2.3548888632645
field sum 64.442826372905
field sqrsum 343.45217531983
field min 0.001362493561
field max 11.976837816575
attr interpolationmode  none
attr source  messageAge(rcvdPk)
attr title  "delay, histogram"
attr unit  s
bin	-INF	0
bin	-5.986375167946	0
bin	-5.1880101464117	0
bin	-4.3896451248775	0
bin	-3.5912801033432	0
bin	-2.7929150818089	0
bin	-1.9945500602747	0
bin	-1.1961850387404	0
bin	-0.39782001720613	23
bin	0.40054500432813	6
bin	1.1989100258624	10
bin	1.9972750473967	0
bin	2.7956400689309	2
bin	3.5940050904652	2
bin	4.3923701119995	1
bin	5.1907351335337	1
bin	5.989100155068	0
bin	6.7874651766023	0
bin	7.5858301981365	0
bin	8.3841952196708	1
bin	9.1825602412051	0
bin	9.9809252627393	0
bin	10.779290284274	0
bin	11.577655305808	1
bin	12.376020327342	0
bin	13.174385348876	0
bin	13.972750370411	0
bin	14.771115391945	0
bin	15.569480413479	0
bin	16.367845435013	0
bin	17.166210456548	0
bin	17.964575478082	0
scalar scenarioPRJP1.node[80].app 	sentPk:count 	743
attr interpolationmode  none
attr source  sentPk
attr title  "packets sent, count"
scalar scenarioPRJP1.node[80].app 	sentPk:sum(packetBytes) 	380416
attr interpolationmode  none
attr source  sentPk
attr title  "packets sent, sum(packetBytes)"
scalar scenarioPRJP1.node[80].udp 	droppedPkBadChecksum:count 	0
attr interpolationmode  none
attr title  "packets dropped (checksum error), count"
scalar scenarioPRJP1.node[80].udp 	droppedPkWrongPort:count 	0
attr interpolationmode  none
attr title  "packets dropped (wrong port), count"
scalar scenarioPRJP1.node[80].udp 	passedUpPk:count 	53
attr interpolationmode  none
attr title  "packets passed up, count"
scalar scenarioPRJP1.node[80].udp 	rcvdPk:count 	53
attr interpolationmode  none
attr source  rcvdPk
attr title  "packets received, count"
scalar scenarioPRJP1.node[80].udp 	rcvdPk:sum(packetBytes) 	27560
attr interpolationmode  none
attr source  rcvdPk
attr title  "packets received, sum(packetBytes)"
scalar scenarioPRJP1.node[80].udp 	sentPk:count 	743
attr interpolationmode  none
attr source  sentPk
attr title  "packets sent, count"
scalar scenarioPRJP1.node[80].udp 	sentPk:sum(packetBytes) 	386360
attr interpolationmode  none
attr source  sentPk
attr title  "packets sent, sum(packetBytes)"
scalar scenarioPRJP1.node[80].networkLayer.arp 	failedARPResolution:count 	6
attr title  "ARP failed resolutions, count"
scalar scenarioPRJP1.node[80].networkLayer.arp 	completedARPResolution:count 	373
attr title  "ARP completed resolutions, count"
scalar scenarioPRJP1.node[80].networkLayer.arp 	initiatedARPResolution:count 	38
attr title  "ARP initiated resolutions, count"
scalar scenarioPRJP1.node[80].networkLayer.arp 	sentReply:count 	23
attr title  "ARP replies sent, count"
scalar scenarioPRJP1.node[80].networkLayer.arp 	sentReq:count 	76
attr title  "ARP request sent, count"
scalar scenarioPRJP1.node[80].mobility 	startTime 	9.6
scalar scenarioPRJP1.node[80].mobility 	totalTime 	277.4
scalar scenarioPRJP1.node[80].mobility 	stopTime 	287.1
scalar scenarioPRJP1.node[80].mobility 	minSpeed 	2.4754222801483e-13
scalar scenarioPRJP1.node[80].mobility 	maxSpeed 	15.558264768967
scalar scenarioPRJP1.node[80].mobility 	totalDistance 	2202.9051289894
scalar scenarioPRJP1.node[80].mobility 	totalCO2Emission 	642.04577939912
scalar scenarioPRJP1.node[80].wlan.mgmt 	dataQueueLen:max 	29
attr interpolationmode  sample-hold
attr title  "data queue length, max"
scalar scenarioPRJP1.node[80].wlan.mgmt 	dataQueueLen:timeavg 	0.21074952552468
attr interpolationmode  sample-hold
attr title  "data queue length, timeavg"
scalar scenarioPRJP1.node[80].wlan.mgmt 	dropPkByQueue:count 	0
attr interpolationmode  none
attr source  dropPkByQueue
attr title  "packets dropped by queue, count"
scalar scenarioPRJP1.node[80].wlan.mgmt 	dropPkByQueue:sum(packetBytes) 	0
attr interpolationmode  none
attr source  dropPkByQueue
attr title  "packets dropped by queue, sum(packetBytes)"
scalar scenarioPRJP1.node[80].wlan.mac 	"number of received packets" 	4735
scalar scenarioPRJP1.node[80].wlan.mac 	"number of collisions" 	48144
scalar scenarioPRJP1.node[80].wlan.mac 	"number of internal collisions" 	0
scalar scenarioPRJP1.node[80].wlan.mac 	"number of retry for AC 0" 	13414
scalar scenarioPRJP1.node[80].wlan.mac 	"number of retry for AC 1" 	0
scalar scenarioPRJP1.node[80].wlan.mac 	"number of retry for AC 2" 	0
scalar scenarioPRJP1.node[80].wlan.mac 	"number of retry for AC 3" 	0
scalar scenarioPRJP1.node[80].wlan.mac 	"sent and received bits" 	10488256
scalar scenarioPRJP1.node[80].wlan.mac 	"sent packet within AC 0" 	2981
scalar scenarioPRJP1.node[80].wlan.mac 	"sent packet within AC 1" 	0
scalar scenarioPRJP1.node[80].wlan.mac 	"sent packet within AC 2" 	0
scalar scenarioPRJP1.node[80].wlan.mac 	"sent packet within AC 3" 	0
scalar scenarioPRJP1.node[80].wlan.mac 	"sent in TXOP " 	0
scalar scenarioPRJP1.node[80].wlan.mac 	"sentWithoutRetry AC 0" 	2663
scalar scenarioPRJP1.node[80].wlan.mac 	"sentWithoutRetry AC 1" 	0
scalar scenarioPRJP1.node[80].wlan.mac 	"sentWithoutRetry AC 2" 	0
scalar scenarioPRJP1.node[80].wlan.mac 	"sentWithoutRetry AC 3" 	0
scalar scenarioPRJP1.node[80].wlan.mac 	"numGivenUp AC 0" 	2123
scalar scenarioPRJP1.node[80].wlan.mac 	"numGivenUp AC 1" 	0
scalar scenarioPRJP1.node[80].wlan.mac 	"numGivenUp AC 2" 	0
scalar scenarioPRJP1.node[80].wlan.mac 	"numGivenUp AC 3" 	0
scalar scenarioPRJP1.node[80].wlan.mac 	"numDropped AC 0" 	309
scalar scenarioPRJP1.node[80].wlan.mac 	"numDropped AC 1" 	0
scalar scenarioPRJP1.node[80].wlan.mac 	"numDropped AC 2" 	0
scalar scenarioPRJP1.node[80].wlan.mac 	"numDropped AC 3" 	0
scalar scenarioPRJP1.node[80].wlan.mac 	rcvdPkFromLL:count 	193001
attr interpolationmode  none
attr source  packetReceivedFromLower
attr title  "packets received from lower layer, count"
scalar scenarioPRJP1.node[80].wlan.mac 	rcvdPkFromLL:sum(packetBytes) 	41489616
attr interpolationmode  none
attr source  packetReceivedFromLower
attr title  "packets received from lower layer, sum(packetBytes)"
scalar scenarioPRJP1.node[80].wlan.mac 	sentDownPk:count 	30367
attr interpolationmode  none
attr source  packetSentToLower
attr title  "packets sent to lower layer, count"
scalar scenarioPRJP1.node[80].wlan.mac 	sentDownPk:sum(packetBytes) 	6953146
attr interpolationmode  none
attr source  packetSentToLower
attr title  "packets sent to lower layer, sum(packetBytes)"
scalar scenarioPRJP1.node[80].wlan.mac 	rcvdPkFromHL:count 	12527
attr interpolationmode  none
attr source  packetReceivedFromUpper
attr title  "packets received from higher layer, count"
scalar scenarioPRJP1.node[80].wlan.mac 	rcvdPkFromHL:sum(packetBytes) 	2124488
attr interpolationmode  none
attr source  packetReceivedFromUpper
attr title  "packets received from higher layer, sum(packetBytes)"
scalar scenarioPRJP1.node[80].wlan.mac 	passedUpPk:count 	34457
attr interpolationmode  none
attr source  packetSentToUpper
attr title  "packets passed to higher layer, count"
scalar scenarioPRJP1.node[80].wlan.mac 	passedUpPk:sum(packetBytes) 	3191832
attr interpolationmode  none
attr source  packetSentToUpper
attr title  "packets passed to higher layer, sum(packetBytes)"
statistic scenarioPRJP1.node[80].wlan.radio 	radioChannel:histogram
field count 1
field mean 3
field stddev nan
field sum 3
field sqrsum 9
field min 3
field max 3
attr interpolationmode  sample-hold
attr source  radioChannelChanged
attr title  "Radio channel, histogram"
bin	-INF	0
bin	2	0
bin	3	1
bin	4	0
scalar scenarioPRJP1.node[80].wlan.radio 	transmissionState:count 	121468
attr interpolationmode  sample-hold
attr source  transmissionStateChanged
attr title  "Radio transmission state, count"
scalar scenarioPRJP1.node[80].wlan.radio 	receptionState:count 	458329
attr interpolationmode  sample-hold
attr source  receptionStateChanged
attr title  "Radio reception state, count"
scalar scenarioPRJP1.node[80].wlan.radio 	radioMode:count 	60736
attr interpolationmode  sample-hold
attr source  radioModeChanged
attr title  "Radio mode, count"
statistic scenarioPRJP1.node[80].wlan.radio 	symbolErrorRate:histogram
field count 0
field mean nan
field stddev nan
field sum 0
field sqrsum 0
field min nan
field max nan
[...]
attr interpolationmode  none
attr source  packetSentToUpper
attr title  "packets passed to higher layer, sum(packetBytes)"
statistic scenarioPRJP1.node[74].wlan.radio 	radioChannel:histogram
field count 1
field mean 3
field stddev nan
field sum 3
field sqrsum 9
field min 3
field max 3
attr interpolationmode  sample-hold
attr source  radioChannelChanged
attr title  "Radio channel, histogram"
bin	-INF	0
bin	2	0
bin	3	1
bin	4	0
scalar scenarioPRJP1.node[74].wlan.radio 	transmissionState:count 	225632
attr interpolationmode  sample-hold
attr source  transmissionStateChanged
attr title  "Radio transmission state, count"
scalar scenarioPRJP1.node[74].wlan.radio 	receptionState:count 	735107
attr interpolationmode  sample-hold
attr source  receptionStateChanged
attr title  "Radio reception state, count"
scalar scenarioPRJP1.node[74].wlan.radio 	radioMode:count 	112818
attr interpolationmode  sample-hold
attr source  radioModeChanged
attr title  "Radio mode, count"
statistic scenarioPRJP1.node[74].wlan.radio 	symbolErrorRate:histogram
field count 0
field mean nan
field stddev nan
field sum 0
field sqrsum 0
field min nan
field max nan
attr source  symbolErrorRate
attr title  "Symbol error rate, histogram"
bin	-INF	0
bin	-0.5	0
bin	-0.46666666666667	0
bin	-0.43333333333333	0
bin	-0.4	0
bin	-0.36666666666667	0
bin	-0.33333333333333	0
bin	-0.3	0
bin	-0.26666666666667	0
bin	-0.23333333333333	0
bin	-0.2	0
bin	-0.16666666666667	0
bin	-0.13333333333333	0
bin	-0.1	0
bin	-0.066666666666667	0
bin	-0.033333333333333	0
bin	0	0
bin	0.033333333333333	0
bin	0.066666666666667	0
bin	0.1	0
bin	0.13333333333333	0
bin	0.16666666666667	0
bin	0.2	0
bin	0.23333333333333	0
bin	0.26666666666667	0
bin	0.3	0
bin	0.33333333333333	0
bin	0.36666666666667	0
bin	0.4	0
bin	0.43333333333333	0
bin	0.46666666666667	0
bin	0.5	0
statistic scenarioPRJP1.node[74].wlan.radio 	bitErrorRate:histogram
field count 0
field mean nan
field stddev nan
field sum 0
field sqrsum 0
field min nan
field max nan
attr source  bitErrorRate
attr title  "Bit error rate, histogram"
bin	-INF	0
bin	-0.5	0
bin	-0.46666666666667	0
bin	-0.43333333333333	0
bin	-0.4	0
bin	-0.36666666666667	0
bin	-0.33333333333333	0
bin	-0.3	0
bin	-0.26666666666667	0
bin	-0.23333333333333	0
bin	-0.2	0
bin	-0.16666666666667	0
bin	-0.13333333333333	0
bin	-0.1	0
bin	-0.066666666666667	0
bin	-0.033333333333333	0
bin	0	0
bin	0.033333333333333	0
bin	0.066666666666667	0
bin	0.1	0
bin	0.13333333333333	0
bin	0.16666666666667	0
bin	0.2	0
bin	0.23333333333333	0
bin	0.26666666666667	0
bin	0.3	0
bin	0.33333333333333	0
bin	0.36666666666667	0
bin	0.4	0
bin	0.43333333333333	0
bin	0.46666666666667	0
bin	0.5	0
statistic scenarioPRJP1.node[74].wlan.radio 	packetErrorRate:histogram
field count 301946
field mean 0.20520218315305
field stddev 0.39516552194024
field sum 61959.978394332
field sqrsum 59864.782764748
field min 0
field max 1
attr source  packetErrorRate
attr title  "Packet error rate, histogram"
bin	-INF	0
bin	-0.43629173010002	0
bin	-0.37811949942002	0
bin	-0.31994726874002	0
bin	-0.26177503806001	0
bin	-0.20360280738001	0
bin	-0.14543057670001	0
bin	-0.087258346020004	0
bin	-0.029086115340001	230898
bin	0.029086115340001	3510
bin	0.087258346020004	1702
bin	0.14543057670001	1173
bin	0.20360280738001	913
bin	0.26177503806001	712
bin	0.31994726874002	642
bin	0.37811949942002	558
bin	0.43629173010002	525
bin	0.49446396078002	473
bin	0.55263619146003	492
bin	0.61080842214003	468
bin	0.66898065282003	469
bin	0.72715288350004	506
bin	0.78532511418004	546
bin	0.84349734486004	622
bin	0.90166957554004	961
bin	0.95984180622005	56776
bin	1.0180140369001	0
bin	1.0761862675801	0
bin	1.1343584982601	0
bin	1.1925307289401	0
bin	1.2507029596201	0
bin	1.3088751903001	0
statistic scenarioPRJP1.node[74].wlan.radio 	minSNIR:histogram
field count 301946
field mean 2149.4127294255
field stddev 23500.378338962
field sum 649006575.9991
field sqrsum 1.6814947845437e+14
field min 0.00016730589544557
field max 2049436.2803791
attr source  minSNIR
attr title  "Min SNIR, histogram"
bin	-INF	0
bin	-692.18129140874	0
bin	-599.45388573721	0
bin	-506.72648006568	0
bin	-413.99907439414	0
bin	-321.27166872261	0
bin	-228.54426305108	0
bin	-135.81685737954	0
bin	-43.08945170801	185491
bin	49.637953963523	35184
bin	142.36535963506	17479
bin	235.09276530659	8554
bin	327.82017097812	5289
bin	420.54757664966	3707
bin	513.27498232119	2948
bin	606.00238799272	2434
bin	698.72979366426	2215
bin	791.45719933579	1993
bin	884.18460500732	1707
bin	976.91201067886	1390
bin	1069.6394163504	1295
bin	1162.3668220219	1179
bin	1255.0942276935	1020
bin	1347.821633365	947
bin	1440.5490390365	833
bin	1533.2764447081	737
bin	1626.0038503796	722
bin	1718.7312560511	586
bin	1811.4586617227	575
bin	1904.1860673942	564
bin	1996.9134730657	534
bin	2089.6408787373	24563
scalar scenarioPRJP1.node[74].lo0.lo 	droppedPkBitError:count 	0
attr interpolationmode  none
attr source  dropPkBitError
attr title  "packets dropped/bit error, count"
scalar scenarioPRJP1.node[74].lo0.lo 	droppedPkBitError:sum(packetBytes) 	0
attr interpolationmode  none
attr source  dropPkBitError
attr title  "packets dropped/bit error, sum(packetBytes)"
scalar scenarioPRJP1.node[74].lo0.lo 	rcvdPkFromHL:count 	119
attr interpolationmode  none
attr source  packetReceivedFromUpper
attr title  "packets received from higher layer, count"
scalar scenarioPRJP1.node[74].lo0.lo 	rcvdPkFromHL:sum(packetBytes) 	61880
attr interpolationmode  none
attr source  packetReceivedFromUpper
attr title  "packets received from higher layer, sum(packetBytes)"
scalar scenarioPRJP1.node[74].lo0.lo 	passedUpPk:count 	119
attr interpolationmode  none
attr source  packetSentToUpper
attr title  "packets passed to higher layer, count"
scalar scenarioPRJP1.node[74].lo0.lo 	passedUpPk:sum(packetBytes) 	61880
attr interpolationmode  none
attr source  packetSentToUpper
attr title  "packets passed to higher layer, sum(packetBytes)"
scalar scenarioPRJP1.node[93].app 	"Total sent" 	2616
scalar scenarioPRJP1.node[93].app 	"Total received" 	93
scalar scenarioPRJP1.node[93].app 	"Total deleted" 	2
scalar scenarioPRJP1.node[93].app 	dropPk:count 	2
attr interpolationmode  none
attr source  dropPk
attr title  "packets dropped, count"
scalar scenarioPRJP1.node[93].app 	dropPk:sum(packetBytes) 	1024
attr interpolationmode  none
attr source  dropPk
attr title  "packets dropped, sum(packetBytes)"
scalar scenarioPRJP1.node[93].app 	outOfOrderPk:count 	5
attr interpolationmode  none
attr source  outOfOrderPk
attr title  "packets received out of order, count"
scalar scenarioPRJP1.node[93].app 	outOfOrderPk:sum(packetBytes) 	2560
attr interpolationmode  none
attr source  outOfOrderPk
attr title  "packets received out of order, sum(packetBytes)"
scalar scenarioPRJP1.node[93].app 	rcvdPk:count 	93
attr interpolationmode  none
attr source  rcvdPk
attr title  "packets received, count"
scalar scenarioPRJP1.node[93].app 	rcvdPk:sum(packetBytes) 	47616
attr interpolationmode  none
attr source  rcvdPk
attr title  "packets received, sum(packetBytes)"
statistic scenarioPRJP1.node[93].app 	endToEndDelay:histogram
field count 93
field mean 0.90623375296759
field stddev 2.5017884909001
field sum 84.279739025986
field sqrsum 652.20014429108
field min 0.00097753313
field max 14.921137844472
attr interpolationmode  none
attr source  messageAge(rcvdPk)
attr title  "delay, histogram"
attr unit  s
bin	-INF	0
bin	-7.459102622541	0
bin	-6.4644252684515	0
bin	-5.4697479143621	0
bin	-4.4750705602726	0
bin	-3.4803932061831	0
bin	-2.4857158520937	0
bin	-1.4910384980042	0
bin	-0.49636114391473	67
bin	0.49831621017473	15
bin	1.4929935642642	5
bin	2.4876709183537	2
bin	3.4823482724431	0
bin	4.4770256265326	0
bin	5.4717029806221	0
bin	6.4663803347115	0
bin	7.461057688801	1
bin	8.4557350428905	0
bin	9.4504123969799	1
bin	10.445089751069	0
bin	11.439767105159	0
bin	12.434444459248	0
bin	13.429121813338	0
bin	14.423799167427	2
bin	15.418476521517	0
bin	16.413153875606	0
bin	17.407831229696	0
bin	18.402508583785	0
bin	19.397185937875	0
bin	20.391863291964	0
bin	21.386540646054	0
bin	22.381218000143	0
scalar scenarioPRJP1.node[93].app 	sentPk:count 	2616
attr interpolationmode  none
attr source  sentPk
attr title  "packets sent, count"
scalar scenarioPRJP1.node[93].app 	sentPk:sum(packetBytes) 	1339392
attr interpolationmode  none
attr source  sentPk
attr title  "packets sent, sum(packetBytes)"
scalar scenarioPRJP1.node[93].udp 	droppedPkBadChecksum:count 	0
attr interpolationmode  none
attr title  "packets dropped (checksum error), count"
scalar scenarioPRJP1.node[93].udp 	droppedPkWrongPort:count 	0
attr interpolationmode  none
attr title  "packets dropped (wrong port), count"
scalar scenarioPRJP1.node[93].udp 	passedUpPk:count 	100
attr interpolationmode  none
attr title  "packets passed up, count"
scalar scenarioPRJP1.node[93].udp 	rcvdPk:count 	100
attr interpolationmode  none
attr source  rcvdPk
attr title  "packets received, count"
scalar scenarioPRJP1.node[93].udp 	rcvdPk:sum(packetBytes) 	52000
attr interpolationmode  none
attr source  rcvdPk
attr title  "packets received, sum(packetBytes)"
scalar scenarioPRJP1.node[93].udp 	sentPk:count 	2616
attr interpolationmode  none
attr source  sentPk
attr title  "packets sent, count"
scalar scenarioPRJP1.node[93].udp 	sentPk:sum(packetBytes) 	1360320
attr interpolationmode  none
attr source  sentPk
attr title  "packets sent, sum(packetBytes)"
scalar scenarioPRJP1.node[93].networkLayer.arp 	failedARPResolution:count 	47
attr title  "ARP failed resolutions, count"
scalar scenarioPRJP1.node[93].networkLayer.arp 	completedARPResolution:count 	1455
attr title  "ARP completed resolutions, count"
scalar scenarioPRJP1.node[93].networkLayer.arp 	initiatedARPResolution:count 	134
attr title  "ARP initiated resolutions, count"
scalar scenarioPRJP1.node[93].networkLayer.arp 	sentReply:count 	56
attr title  "ARP replies sent, count"
scalar scenarioPRJP1.node[93].networkLayer.arp 	sentReq:count 	278
attr title  "ARP request sent, count"
scalar scenarioPRJP1.node[93].mobility 	startTime 	9.7
scalar scenarioPRJP1.node[93].mobility 	totalTime 	940.3
scalar scenarioPRJP1.node[93].mobility 	stopTime 	950
scalar scenarioPRJP1.node[93].mobility 	minSpeed 	2.4755609926169e-13
scalar scenarioPRJP1.node[93].mobility 	maxSpeed 	15.424949367827
scalar scenarioPRJP1.node[93].mobility 	totalDistance 	8753.9912918601
scalar scenarioPRJP1.node[93].mobility 	totalCO2Emission 	2209.6889681573
scalar scenarioPRJP1.node[93].wlan.mgmt 	dataQueueLen:max 	42
attr interpolationmode  sample-hold
attr title  "data queue length, max"
scalar scenarioPRJP1.node[93].wlan.mgmt 	dataQueueLen:timeavg 	0.043621343487568
attr interpolationmode  sample-hold
attr title  "data queue length, timeavg"
scalar scenarioPRJP1.node[93].wlan.mgmt 	dropPkByQueue:count 	0
attr interpolationmode  none
attr source  dropPkByQueue
attr title  "packets dropped by queue, count"
scalar scenarioPRJP1.node[93].wlan.mgmt 	dropPkByQueue:sum(packetBytes) 	0
attr interpolationmode  none
attr source  dropPkByQueue
attr title  "packets dropped by queue, sum(packetBytes)"
scalar scenarioPRJP1.node[93].wlan.mac 	"number of received packets" 	11117
scalar scenarioPRJP1.node[93].wlan.mac 	"number of collisions" 	81534
scalar scenarioPRJP1.node[93].wlan.mac 	"number of internal collisions" 	0
scalar scenarioPRJP1.node[93].wlan.mac 	"number of retry for AC 0" 	32272
scalar scenarioPRJP1.node[93].wlan.mac 	"number of retry for AC 1" 	0
scalar scenarioPRJP1.node[93].wlan.mac 	"number of retry for AC 2" 	0
scalar scenarioPRJP1.node[93].wlan.mac 	"number of retry for AC 3" 	0
scalar scenarioPRJP1.node[93].wlan.mac 	"sent and received bits" 	17955168
scalar scenarioPRJP1.node[93].wlan.mac 	"sent packet within AC 0" 	4078
scalar scenarioPRJP1.node[93].wlan.mac 	"sent packet within AC 1" 	0
scalar scenarioPRJP1.node[93].wlan.mac 	"sent packet within AC 2" 	0
scalar scenarioPRJP1.node[93].wlan.mac 	"sent packet within AC 3" 	0
scalar scenarioPRJP1.node[93].wlan.mac 	"sent in TXOP " 	0
scalar scenarioPRJP1.node[93].wlan.mac 	"sentWithoutRetry AC 0" 	3533
scalar scenarioPRJP1.node[93].wlan.mac 	"sentWithoutRetry AC 1" 	0
scalar scenarioPRJP1.node[93].wlan.mac 	"sentWithoutRetry AC 2" 	0
scalar scenarioPRJP1.node[93].wlan.mac 	"sentWithoutRetry AC 3" 	0
scalar scenarioPRJP1.node[93].wlan.mac 	"numGivenUp AC 0" 	5163
scalar scenarioPRJP1.node[93].wlan.mac 	"numGivenUp AC 1" 	0
scalar scenarioPRJP1.node[93].wlan.mac 	"numGivenUp AC 2" 	0
scalar scenarioPRJP1.node[93].wlan.mac 	"numGivenUp AC 3" 	0
scalar scenarioPRJP1.node[93].wlan.mac 	"numDropped AC 0" 	296
scalar scenarioPRJP1.node[93].wlan.mac 	"numDropped AC 1" 	0
scalar scenarioPRJP1.node[93].wlan.mac 	"numDropped AC 2" 	0
scalar scenarioPRJP1.node[93].wlan.mac 	"numDropped AC 3" 	0
scalar scenarioPRJP1.node[93].wlan.mac 	rcvdPkFromLL:count 	317844
attr interpolationmode  none
attr source  packetReceivedFromLower
attr title  "packets received from lower layer, count"
scalar scenarioPRJP1.node[93].wlan.mac 	rcvdPkFromLL:sum(packetBytes) 	82461494
attr interpolationmode  none
attr source  packetReceivedFromLower
attr title  "packets received from lower layer, sum(packetBytes)"
scalar scenarioPRJP1.node[93].wlan.mac 	sentDownPk:count 	65323
attr interpolationmode  none
attr source  packetSentToLower
attr title  "packets sent to lower layer, count"
scalar scenarioPRJP1.node[93].wlan.mac 	sentDownPk:sum(packetBytes) 	17081678
attr interpolationmode  none
attr source  packetSentToLower
attr title  "packets sent to lower layer, sum(packetBytes)"
scalar scenarioPRJP1.node[93].wlan.mac 	rcvdPkFromHL:count 	22230
attr interpolationmode  none
attr source  packetReceivedFromUpper
attr title  "packets received from higher layer, count"
scalar scenarioPRJP1.node[93].wlan.mac 	rcvdPkFromHL:sum(packetBytes) 	4316816
attr interpolationmode  none
attr source  packetReceivedFromUpper
attr title  "packets received from higher layer, sum(packetBytes)"
scalar scenarioPRJP1.node[93].wlan.mac 	passedUpPk:count 	48402
attr interpolationmode  none
attr source  packetSentToUpper
attr title  "packets passed to higher layer, count"
scalar scenarioPRJP1.node[93].wlan.mac 	passedUpPk:sum(packetBytes) 	4849376
attr interpolationmode  none
attr source  packetSentToUpper
attr title  "packets passed to higher layer, sum(packetBytes)"
statistic scenarioPRJP1.node[93].wlan.radio 	radioChannel:histogram
field count 1
field mean 3
field stddev nan
field sum 3
field sqrsum 9
field min 3
field max 3
attr interpolationmode  sample-hold
attr source  radioChannelChanged
attr title  "Radio channel, histogram"
bin	-INF	0
bin	2	0
bin	3	1
bin	4	0
scalar scenarioPRJP1.node[93].wlan.radio 	transmissionState:count 	261290
attr interpolationmode  sample-hold
attr source  transmissionStateChanged
attr title  "Radio transmission state, count"
scalar scenarioPRJP1.node[93].wlan.radio 	receptionState:count 	791370
attr interpolationmode  sample-hold
attr source  receptionStateChanged
attr title  "Radio reception state, count"
scalar scenarioPRJP1.node[93].wlan.radio 	radioMode:count 	130647
attr interpolationmode  sample-hold
attr source  radioModeChanged
attr title  "Radio mode, count"
statistic scenarioPRJP1.node[93].wlan.radio 	symbolErrorRate:histogram
field count 0
field mean nan
field stddev nan
field sum 0
field sqrsum 0
field min nan
field max nan
attr source  symbolErrorRate
attr title  "Symbol error rate, histogram"
bin	-INF	0
bin	-0.5	0
bin	-0.46666666666667	0
bin	-0.43333333333333	0
bin	-0.4	0
bin	-0.36666666666667	0
bin	-0.33333333333333	0
bin	-0.3	0
bin	-0.26666666666667	0
bin	-0.23333333333333	0
bin	-0.2	0
bin	-0.16666666666667	0
bin	-0.13333333333333	0
bin	-0.1	0
bin	-0.066666666666667	0
bin	-0.033333333333333	0
bin	0	0
bin	0.033333333333333	0
bin	0.066666666666667	0
bin	0.1	0
bin	0.13333333333333	0
bin	0.16666666666667	0
bin	0.2	0
bin	0.23333333333333	0
bin	0.26666666666667	0
bin	0.3	0
bin	0.33333333333333	0
bin	0.36666666666667	0
bin	0.4	0
bin	0.43333333333333	0
bin	0.46666666666667	0
bin	0.5	0
statistic scenarioPRJP1.node[93].wlan.radio 	bitErrorRate:histogram
field count 0
field mean nan
field stddev nan
field sum 0
field sqrsum 0
field min nan
field max nan
attr source  bitErrorRate
attr title  "Bit error rate, histogram"
bin	-INF	0
bin	-0.5	0
bin	-0.46666666666667	0
bin	-0.43333333333333	0
bin	-0.4	0
bin	-0.36666666666667	0
bin	-0.33333333333333	0
bin	-0.3	0
bin	-0.26666666666667	0
bin	-0.23333333333333	0
bin	-0.2	0
bin	-0.16666666666667	0
bin	-0.13333333333333	0
bin	-0.1	0
bin	-0.066666666666667	0
bin	-0.033333333333333	0
bin	0	0
bin	0.033333333333333	0
bin	0.066666666666667	0
bin	0.1	0
bin	0.13333333333333	0
bin	0.16666666666667	0
bin	0.2	0
bin	0.23333333333333	0
bin	0.26666666666667	0
bin	0.3	0
bin	0.33333333333333	0
bin	0.36666666666667	0
bin	0.4	0
bin	0.43333333333333	0
bin	0.46666666666667	0
bin	0.5	0
statistic scenarioPRJP1.node[93].wlan.radio 	packetErrorRate:histogram
field count 317844
field mean 0.23918133269455
field stddev 0.41685569227546
field sum 76022.351508966
field sqrsum 73414.282149603
field min 0
field max 1
attr source  packetErrorRate
attr title  "Packet error rate, histogram"
bin	-INF	0
bin	-0.5	0
bin	-0.43333333333333	0
bin	-0.36666666666667	0
bin	-0.3	0
bin	-0.23333333333333	0
bin	-0.16666666666667	0
bin	-0.1	0
bin	-0.033333333333333	231064
bin	0.033333333333333	4380
bin	0.1	2134
bin	0.16666666666667	1492
bin	0.23333333333333	1134
bin	0.3	908
bin	0.36666666666667	809
bin	0.43333333333333	733
bin	0.5	717
bin	0.56666666666667	656
bin	0.63333333333333	695
bin	0.7	709
bin	0.76666666666667	773
bin	0.83333333333333	897
bin	0.9	1385
bin	0.96666666666667	69358
bin	1.0333333333333	0
bin	1.1	0
bin	1.1666666666667	0
bin	1.2333333333333	0
bin	1.3	0
bin	1.3666666666667	0
bin	1.4333333333333	0
bin	1.5	0
statistic scenarioPRJP1.node[93].wlan.radio 	minSNIR:histogram
field count 317844
field mean 2275.5164032572
field stddev 26801.559974723
field sum 723259235.67687
field sqrsum 2.2995992167773e+14
field min 0.00017352914320724
field max 803745.76002283
attr source  minSNIR
attr title  "Min SNIR, histogram"
bin	-INF	0
bin	-450.99878421971	0
bin	-390.7133379516	0
bin	-330.42789168349	0
bin	-270.14244541538	0
bin	-209.85699914728	0
bin	-149.57155287917	0
bin	-89.286106611058	0
bin	-29.00066034295	201427
bin	31.284785925159	34402
bin	91.570232193268	15288
bin	151.85567846138	11214
bin	212.14112472948	7030
bin	272.42657099759	5096
bin	332.7120172657	3436
bin	392.99746353381	2681
bin	453.28290980192	2102
bin	513.56835607003	1734
bin	573.85380233814	1562
bin	634.13924860625	1461
bin	694.42469487435	1237
bin	754.71014114246	1091
bin	814.99558741057	949
bin	875.28103367868	906
bin	935.56647994679	804
bin	995.8519262149	743
bin	1056.137372483	646
bin	1116.4228187511	586
bin	1176.7082650192	527
bin	1236.9937112873	468
bin	1297.2791575554	454
bin	1357.5646038235	22000
scalar scenarioPRJP1.node[93].lo0.lo 	droppedPkBitError:count 	0
attr interpolationmode  none
attr source  dropPkBitError
attr title  "packets dropped/bit error, count"
scalar scenarioPRJP1.node[93].lo0.lo 	droppedPkBitError:sum(packetBytes) 	0
attr interpolationmode  none
attr source  dropPkBitError
attr title  "packets dropped/bit error, sum(packetBytes)"
scalar scenarioPRJP1.node[93].lo0.lo 	rcvdPkFromHL:count 	100
attr interpolationmode  none
attr source  packetReceivedFromUpper
attr title  "packets received from higher layer, count"
scalar scenarioPRJP1.node[93].lo0.lo 	rcvdPkFromHL:sum(packetBytes) 	52000
attr interpolationmode  none
attr source  packetReceivedFromUpper
attr title  "packets received from higher layer, sum(packetBytes)"
scalar scenarioPRJP1.node[93].lo0.lo 	passedUpPk:count 	100
attr interpolationmode  none
attr source  packetSentToUpper
attr title  "packets passed to higher layer, count"
scalar scenarioPRJP1.node[93].lo0.lo 	passedUpPk:sum(packetBytes) 	52000
attr interpolationmode  none
attr source  packetSentToUpper
attr title  "packets passed to higher layer, sum(packetBytes)"
