version 2
run DSRUU-TRG-100n-4-20150731-01:16:39-12093
attr configname DSRUU-TRG-100n
attr datetime 20150731-01:16:39
attr experiment DSRUU-TRG-100n
attr inifile omnetpp.ini
attr iterationvars ""
attr iterationvars2 $repetition=4
attr measurement ""
attr network Prj_Part1_propag.scenarioPRJP1
attr processid 12093
attr repetition 4
attr replication #4
attr resultdir results
attr runnumber 4
attr seedset 4

scalar scenarioPRJP1.node[87].app 	"Total sent" 	365
scalar scenarioPRJP1.node[87].app 	"Total received" 	15
scalar scenarioPRJP1.node[87].app 	"Total deleted" 	0
scalar scenarioPRJP1.node[87].app 	dropPk:count 	0
attr interpolationmode  none
attr source  dropPk
attr title  "packets dropped, count"
scalar scenarioPRJP1.node[87].app 	dropPk:sum(packetBytes) 	0
attr interpolationmode  none
attr source  dropPk
attr title  "packets dropped, sum(packetBytes)"
scalar scenarioPRJP1.node[87].app 	outOfOrderPk:count 	5
attr interpolationmode  none
attr source  outOfOrderPk
attr title  "packets received out of order, count"
scalar scenarioPRJP1.node[87].app 	outOfOrderPk:sum(packetBytes) 	2560
attr interpolationmode  none
attr source  outOfOrderPk
attr title  "packets received out of order, sum(packetBytes)"
scalar scenarioPRJP1.node[87].app 	rcvdPk:count 	15
attr interpolationmode  none
attr source  rcvdPk
attr title  "packets received, count"
scalar scenarioPRJP1.node[87].app 	rcvdPk:sum(packetBytes) 	7680
attr interpolationmode  none
attr source  rcvdPk
attr title  "packets received, sum(packetBytes)"
statistic scenarioPRJP1.node[87].app 	endToEndDelay:histogram
field count 15
field mean 0.095810876448933
field stddev 0.21661744103596
field sum 1.437163146734
field sqrsum 0.79461948134225
field min 0.00200219497
field max 0.843692479075
attr interpolationmode  none
attr source  messageAge(rcvdPk)
attr title  "delay, histogram"
attr unit  s
bin	-INF	0
bin	-0.4188429470825	0
bin	-0.3627302614755	0
bin	-0.3066175758685	0
bin	-0.2505048902615	0
bin	-0.1943922046545	0
bin	-0.1382795190475	0
bin	-0.0821668334405	0
bin	-0.0260541478335	9
bin	0.0300585377735	3
bin	0.0861712233805	1
bin	0.1422839089875	0
bin	0.1983965945945	1
bin	0.2545092802015	0
bin	0.3106219658085	0
bin	0.3667346514155	0
bin	0.4228473370225	0
bin	0.4789600226295	0
bin	0.5350727082365	0
bin	0.5911853938435	0
bin	0.6472980794505	0
bin	0.7034107650575	0
bin	0.7595234506645	0
bin	0.8156361362715	1
bin	0.8717488218785	0
bin	0.9278615074855	0
bin	0.9839741930925	0
bin	1.0400868786995	0
bin	1.0961995643065	0
bin	1.1523122499135	0
bin	1.2084249355205	0
bin	1.2645376211275	0
scalar scenarioPRJP1.node[87].app 	sentPk:count 	365
attr interpolationmode  none
attr source  sentPk
attr title  "packets sent, count"
scalar scenarioPRJP1.node[87].app 	sentPk:sum(packetBytes) 	186880
attr interpolationmode  none
attr source  sentPk
attr title  "packets sent, sum(packetBytes)"
scalar scenarioPRJP1.node[87].udp 	droppedPkBadChecksum:count 	0
attr interpolationmode  none
attr title  "packets dropped (checksum error), count"
scalar scenarioPRJP1.node[87].udp 	droppedPkWrongPort:count 	0
attr interpolationmode  none
attr title  "packets dropped (wrong port), count"
scalar scenarioPRJP1.node[87].udp 	passedUpPk:count 	20
attr interpolationmode  none
attr title  "packets passed up, count"
scalar scenarioPRJP1.node[87].udp 	rcvdPk:count 	20
attr interpolationmode  none
attr source  rcvdPk
attr title  "packets received, count"
scalar scenarioPRJP1.node[87].udp 	rcvdPk:sum(packetBytes) 	10400
attr interpolationmode  none
attr source  rcvdPk
attr title  "packets received, sum(packetBytes)"
scalar scenarioPRJP1.node[87].udp 	sentPk:count 	365
attr interpolationmode  none
attr source  sentPk
attr title  "packets sent, count"
scalar scenarioPRJP1.node[87].udp 	sentPk:sum(packetBytes) 	189800
attr interpolationmode  none
attr source  sentPk
attr title  "packets sent, sum(packetBytes)"
scalar scenarioPRJP1.node[87].networkLayer.arp 	failedARPResolution:count 	2
attr title  "ARP failed resolutions, count"
scalar scenarioPRJP1.node[87].networkLayer.arp 	completedARPResolution:count 	82
attr title  "ARP completed resolutions, count"
scalar scenarioPRJP1.node[87].networkLayer.arp 	initiatedARPResolution:count 	13
attr title  "ARP initiated resolutions, count"
scalar scenarioPRJP1.node[87].networkLayer.arp 	sentReply:count 	14
attr title  "ARP replies sent, count"
scalar scenarioPRJP1.node[87].networkLayer.arp 	sentReq:count 	22
attr title  "ARP request sent, count"
scalar scenarioPRJP1.node[87].mobility 	startTime 	9.7
scalar scenarioPRJP1.node[87].mobility 	totalTime 	149.5
scalar scenarioPRJP1.node[87].mobility 	stopTime 	159.3
scalar scenarioPRJP1.node[87].mobility 	minSpeed 	2.4758910403061e-13
scalar scenarioPRJP1.node[87].mobility 	maxSpeed 	19.019393649743
scalar scenarioPRJP1.node[87].mobility 	totalDistance 	1484.7779491436
scalar scenarioPRJP1.node[87].mobility 	totalCO2Emission 	464.72647984896
scalar scenarioPRJP1.node[87].wlan.mgmt 	dataQueueLen:max 	8
attr interpolationmode  sample-hold
attr title  "data queue length, max"
scalar scenarioPRJP1.node[87].wlan.mgmt 	dataQueueLen:timeavg 	0.0078687502596056
attr interpolationmode  sample-hold
attr title  "data queue length, timeavg"
scalar scenarioPRJP1.node[87].wlan.mgmt 	dropPkByQueue:count 	0
attr interpolationmode  none
attr source  dropPkByQueue
attr title  "packets dropped by queue, count"
scalar scenarioPRJP1.node[87].wlan.mgmt 	dropPkByQueue:sum(packetBytes) 	0
attr interpolationmode  none
attr source  dropPkByQueue
attr title  "packets dropped by queue, sum(packetBytes)"
scalar scenarioPRJP1.node[87].wlan.mac 	"number of received packets" 	1892
scalar scenarioPRJP1.node[87].wlan.mac 	"number of collisions" 	16346
scalar scenarioPRJP1.node[87].wlan.mac 	"number of internal collisions" 	0
scalar scenarioPRJP1.node[87].wlan.mac 	"number of retry for AC 0" 	5136
scalar scenarioPRJP1.node[87].wlan.mac 	"number of retry for AC 1" 	0
scalar scenarioPRJP1.node[87].wlan.mac 	"number of retry for AC 2" 	0
scalar scenarioPRJP1.node[87].wlan.mac 	"number of retry for AC 3" 	0
scalar scenarioPRJP1.node[87].wlan.mac 	"sent and received bits" 	3339488
scalar scenarioPRJP1.node[87].wlan.mac 	"sent packet within AC 0" 	579
scalar scenarioPRJP1.node[87].wlan.mac 	"sent packet within AC 1" 	0
scalar scenarioPRJP1.node[87].wlan.mac 	"sent packet within AC 2" 	0
scalar scenarioPRJP1.node[87].wlan.mac 	"sent packet within AC 3" 	0
scalar scenarioPRJP1.node[87].wlan.mac 	"sent in TXOP " 	0
scalar scenarioPRJP1.node[87].wlan.mac 	"sentWithoutRetry AC 0" 	515
scalar scenarioPRJP1.node[87].wlan.mac 	"sentWithoutRetry AC 1" 	0
scalar scenarioPRJP1.node[87].wlan.mac 	"sentWithoutRetry AC 2" 	0
scalar scenarioPRJP1.node[87].wlan.mac 	"sentWithoutRetry AC 3" 	0
scalar scenarioPRJP1.node[87].wlan.mac 	"numGivenUp AC 0" 	834
scalar scenarioPRJP1.node[87].wlan.mac 	"numGivenUp AC 1" 	0
scalar scenarioPRJP1.node[87].wlan.mac 	"numGivenUp AC 2" 	0
scalar scenarioPRJP1.node[87].wlan.mac 	"numGivenUp AC 3" 	0
scalar scenarioPRJP1.node[87].wlan.mac 	"numDropped AC 0" 	37
scalar scenarioPRJP1.node[87].wlan.mac 	"numDropped AC 1" 	0
scalar scenarioPRJP1.node[87].wlan.mac 	"numDropped AC 2" 	0
scalar scenarioPRJP1.node[87].wlan.mac 	"numDropped AC 3" 	0
scalar scenarioPRJP1.node[87].wlan.mac 	rcvdPkFromLL:count 	57963
attr interpolationmode  none
attr source  packetReceivedFromLower
attr title  "packets received from lower layer, count"
scalar scenarioPRJP1.node[87].wlan.mac 	rcvdPkFromLL:sum(packetBytes) 	10965552
attr interpolationmode  none
attr source  packetReceivedFromLower
attr title  "packets received from lower layer, sum(packetBytes)"
scalar scenarioPRJP1.node[87].wlan.mac 	sentDownPk:count 	12321
attr interpolationmode  none
attr source  packetSentToLower
attr title  "packets sent to lower layer, count"
scalar scenarioPRJP1.node[87].wlan.mac 	sentDownPk:sum(packetBytes) 	2488140
attr interpolationmode  none
attr source  packetSentToLower
attr title  "packets sent to lower layer, sum(packetBytes)"
scalar scenarioPRJP1.node[87].wlan.mac 	rcvdPkFromHL:count 	5330
attr interpolationmode  none
attr source  packetReceivedFromUpper
attr title  "packets received from higher layer, count"
scalar scenarioPRJP1.node[87].wlan.mac 	rcvdPkFromHL:sum(packetBytes) 	707244
attr interpolationmode  none
attr source  packetReceivedFromUpper
attr title  "packets received from higher layer, sum(packetBytes)"
scalar scenarioPRJP1.node[87].wlan.mac 	passedUpPk:count 	15317
attr interpolationmode  none
attr source  packetSentToUpper
attr title  "packets passed to higher layer, count"
scalar scenarioPRJP1.node[87].wlan.mac 	passedUpPk:sum(packetBytes) 	1274632
attr interpolationmode  none
attr source  packetSentToUpper
attr title  "packets passed to higher layer, sum(packetBytes)"
statistic scenarioPRJP1.node[87].wlan.radio 	radioChannel:histogram
field count 1
field mean 3
field stddev nan
field sum 3
field sqrsum 9
field min 3
field max 3
attr interpolationmode  sample-hold
attr source  radioChannelChanged
attr title  "Radio channel, histogram"
bin	-INF	0
bin	2	0
bin	3	1
bin	4	0
scalar scenarioPRJP1.node[87].wlan.radio 	transmissionState:count 	49284
attr interpolationmode  sample-hold
attr source  transmissionStateChanged
attr title  "Radio transmission state, count"
scalar scenarioPRJP1.node[87].wlan.radio 	receptionState:count 	143434
attr interpolationmode  sample-hold
attr source  receptionStateChanged
attr title  "Radio reception state, count"
scalar scenarioPRJP1.node[87].wlan.radio 	radioMode:count 	24644
attr interpolationmode  sample-hold
attr source  radioModeChanged
attr title  "Radio mode, count"
statistic scenarioPRJP1.node[87].wlan.radio 	symbolErrorRate:histogram
field count 0
field mean nan
field stddev nan
field sum 0
field sqrsum 0
field min nan
field max nan
attr source  symbolErrorRate
attr title  "Symbol error rate, histogram"
bin	-INF	0
bin	-0.5	0
bin	-0.46666666666667	0
bin	-0.43333333333333	0
bin	-0.4	0
bin	-0.36666666666667	0
bin	-0.33333333333333	0
bin	-0.3	0
bin	-0.26666666666667	0
bin	-0.23333333333333	0
bin	-0.2	0
bin	-0.16666666666667	0
bin	-0.13333333333333	0
bin	-0.1	0
bin	-0.066666666666667	0
bin	-0.033333333333333	0
bin	0	0
bin	0.033333333333333	0
bin	0.066666666666667	0
bin	0.1	0
bin	0.13333333333333	0
bin	0.16666666666667	0
bin	0.2	0
bin	0.23333333333333	0
bin	0.26666666666667	0
bin	0.3	0
bin	0.33333333333333	0
bin	0.36666666666667	0
bin	0.4	0
bin	0.43333333333333	0
bin	0.46666666666667	0
bin	0.5	0
statistic scenarioPRJP1.node[87].wlan.radio 	bitErrorRate:histogram
field count 0
field mean nan
field stddev nan
field sum 0
field sqrsum 0
field min nan
field max nan
attr source  bitErrorRate
attr title  "Bit error rate, histogram"
bin	-INF	0
bin	-0.5	0
bin	-0.46666666666667	0
bin	-0.43333333333333	0
bin	-0.4	0
bin	-0.36666666666667	0
bin	-0.33333333333333	0
bin	-0.3	0
bin	-0.26666666666667	0
bin	-0.23333333333333	0
bin	-0.2	0
bin	-0.16666666666667	0
bin	-0.13333333333333	0
bin	-0.1	0
bin	-0.066666666666667	0
bin	-0.033333333333333	0
bin	0	0
bin	0.033333333333333	0
bin	0.066666666666667	0
bin	0.1	0
bin	0.13333333333333	0
bin	0.16666666666667	0
bin	0.2	0
bin	0.23333333333333	0
bin	0.26666666666667	0
bin	0.3	0
bin	0.33333333333333	0
bin	0.36666666666667	0
bin	0.4	0
bin	0.43333333333333	0
bin	0.46666666666667	0
bin	0.5	0
statistic scenarioPRJP1.node[87].wlan.radio 	packetErrorRate:histogram
field count 57963
field mean 0.25491503470846
field stddev 0.42426484707334
field sum 14775.640156806
field sqrsum 14199.73110512
field min 0
field max 1
attr source  packetErrorRate
attr title  "Packet error rate, histogram"
bin	-INF	0
bin	-0.27506002384823	0
bin	-0.2383853540018	0
bin	-0.20171068415537	0
bin	-0.16503601430894	0
bin	-0.12836134446251	0
bin	-0.091686674616076	0
bin	-0.055012004769645	0
bin	-0.018337334923215	40257
bin	0.018337334923215	984
bin	0.055012004769645	479
bin	0.091686674616076	304
bin	0.12836134446251	240
bin	0.16503601430894	200
bin	0.20171068415537	149
bin	0.2383853540018	139
bin	0.27506002384823	123
bin	0.31173469369466	96
bin	0.34840936354109	103
bin	0.38508403338752	88
bin	0.42175870323395	81
bin	0.45843337308038	104
bin	0.49510804292681	90
bin	0.53178271277324	87
bin	0.56845738261967	84
bin	0.6051320524661	79
bin	0.64180672231253	81
bin	0.67848139215896	93
bin	0.71515606200539	78
bin	0.75183073185182	98
bin	0.78850540169825	106
bin	0.82518007154468	13820
statistic scenarioPRJP1.node[87].wlan.radio 	minSNIR:histogram
field count 57963
field mean 1190.0822501667
field stddev 11065.768647361
field sum 68980737.46641
field sqrsum 7179611278204.1
field min 0.00016734930380787
field max 753239.71923443
attr source  minSNIR
attr title  "Min SNIR, histogram"
bin	-INF	0
bin	-1558.0302900563	0
bin	-1350.0551033561	0
bin	-1142.0799166558	0
bin	-934.10472995556	0
bin	-726.12954325532	0
bin	-518.15435655507	0
bin	-310.17916985483	0
bin	-102.20398315458	47283
bin	105.77120354566	3269
bin	313.74639024591	904
bin	521.72157694615	458
bin	729.6967636464	327
bin	937.67195034664	202
bin	1145.6471370469	133
bin	1353.6223237471	166
bin	1561.5975104474	133
bin	1769.5726971476	87
bin	1977.5478838479	96
bin	2185.5230705481	89
bin	2393.4982572484	123
bin	2601.4734439486	110
bin	2809.4486306488	149
bin	3017.4238173491	156
bin	3225.3990040493	174
bin	3433.3741907496	146
bin	3641.3493774498	126
bin	3849.3245641501	145
bin	4057.2997508503	130
bin	4265.2749375506	143
bin	4473.2501242508	139
bin	4681.2253109511	3275
scalar scenarioPRJP1.node[87].lo0.lo 	droppedPkBitError:count 	0
attr interpolationmode  none
attr source  dropPkBitError
attr title  "packets dropped/bit error, count"
scalar scenarioPRJP1.node[87].lo0.lo 	droppedPkBitError:sum(packetBytes) 	0
attr interpolationmode  none
attr source  dropPkBitError
attr title  "packets dropped/bit error, sum(packetBytes)"
scalar scenarioPRJP1.node[87].lo0.lo 	rcvdPkFromHL:count 	20
attr interpolationmode  none
attr source  packetReceivedFromUpper
attr title  "packets received from higher layer, count"
scalar scenarioPRJP1.node[87].lo0.lo 	rcvdPkFromHL:sum(packetBytes) 	10400
attr interpolationmode  none
attr source  packetReceivedFromUpper
attr title  "packets received from higher layer, sum(packetBytes)"
scalar scenarioPRJP1.node[87].lo0.lo 	passedUpPk:count 	20
attr interpolationmode  none
attr source  packetSentToUpper
attr title  "packets passed to higher layer, count"
scalar scenarioPRJP1.node[87].lo0.lo 	passedUpPk:sum(packetBytes) 	10400
attr interpolationmode  none
attr source  packetSentToUpper
attr title  "packets passed to higher layer, sum(packetBytes)"
scalar scenarioPRJP1.node[47].app 	"Total sent" 	370
scalar scenarioPRJP1.node[47].app 	"Total received" 	28
scalar scenarioPRJP1.node[47].app 	"Total deleted" 	3
scalar scenarioPRJP1.node[47].app 	dropPk:count 	3
attr interpolationmode  none
attr source  dropPk
attr title  "packets dropped, count"
scalar scenarioPRJP1.node[47].app 	dropPk:sum(packetBytes) 	1536
attr interpolationmode  none
attr source  dropPk
attr title  "packets dropped, sum(packetBytes)"
scalar scenarioPRJP1.node[47].app 	outOfOrderPk:count 	6
attr interpolationmode  none
attr source  outOfOrderPk
attr title  "packets received out of order, count"
scalar scenarioPRJP1.node[47].app 	outOfOrderPk:sum(packetBytes) 	3072
attr interpolationmode  none
attr source  outOfOrderPk
attr title  "packets received out of order, sum(packetBytes)"
scalar scenarioPRJP1.node[47].app 	rcvdPk:count 	28
attr interpolationmode  none
attr source  rcvdPk
attr title  "packets received, count"
scalar scenarioPRJP1.node[47].app 	rcvdPk:sum(packetBytes) 	14336
attr interpolationmode  none
attr source  rcvdPk
attr title  "packets received, sum(packetBytes)"
statistic scenarioPRJP1.node[47].app 	endToEndDelay:histogram
field count 28
field mean 1.6406051963063
field stddev 3.6299011490372
field sum 45.936945496577
field sqrsum 431.12131498223
field min 0.002271108732
field max 17.919214444364
attr interpolationmode  none
attr source  messageAge(rcvdPk)
attr title  "delay, histogram"
attr unit  s
bin	-INF	0
bin	-8.956200559084	0
bin	-7.7617376700419	0
bin	-6.5672747809997	0
bin	-5.3728118919576	0
bin	-4.1783490029155	0
bin	-2.9838861138733	0
bin	-1.7894232248312	0
bin	-0.59496033578907	17
bin	0.59950255325307	6
bin	1.7939654422952	2
bin	2.9884283313373	1
bin	4.1828912203795	0
bin	5.3773541094216	0
bin	6.5718169984637	0
bin	7.7662798875059	1
bin	8.960742776548	0
bin	10.15520566559	0
bin	11.349668554632	0
bin	12.544131443674	0
bin	13.738594332717	0
bin	14.933057221759	0
bin	16.127520110801	0
bin	17.321982999843	1
bin	18.516445888885	0
bin	19.710908777927	0
bin	20.905371666969	0
bin	22.099834556011	0
bin	23.294297445054	0
bin	24.488760334096	0
bin	25.683223223138	0
bin	26.87768611218	0
scalar scenarioPRJP1.node[47].app 	sentPk:count 	370
attr interpolationmode  none
attr source  sentPk
attr title  "packets sent, count"
scalar scenarioPRJP1.node[47].app 	sentPk:sum(packetBytes) 	189440
attr interpolationmode  none
attr source  sentPk
attr title  "packets sent, sum(packetBytes)"
scalar scenarioPRJP1.node[47].udp 	droppedPkBadChecksum:count 	0
attr interpolationmode  none
attr title  "packets dropped (checksum error), count"
scalar scenarioPRJP1.node[47].udp 	droppedPkWrongPort:count 	0
attr interpolationmode  none
attr title  "packets dropped (wrong port), count"
scalar scenarioPRJP1.node[47].udp 	passedUpPk:count 	37
attr interpolationmode  none
attr title  "packets passed up, count"
scalar scenarioPRJP1.node[47].udp 	rcvdPk:count 	37
attr interpolationmode  none
attr source  rcvdPk
attr title  "packets received, count"
scalar scenarioPRJP1.node[47].udp 	rcvdPk:sum(packetBytes) 	19240
attr interpolationmode  none
attr source  rcvdPk
attr title  "packets received, sum(packetBytes)"
scalar scenarioPRJP1.node[47].udp 	sentPk:count 	370
attr interpolationmode  none
attr source  sentPk
attr title  "packets sent, count"
scalar scenarioPRJP1.node[47].udp 	sentPk:sum(packetBytes) 	192400
attr interpolationmode  none
attr source  sentPk
attr title  "packets sent, sum(packetBytes)"
scalar scenarioPRJP1.node[47].networkLayer.arp 	failedARPResolution:count 	4
attr title  "ARP failed resolutions, count"
scalar scenarioPRJP1.node[47].networkLayer.arp 	completedARPResolution:count 	157
attr title  "ARP completed resolutions, count"
scalar scenarioPRJP1.node[47].networkLayer.arp 	initiatedARPResolution:count 	25
attr title  "ARP initiated resolutions, count"
scalar scenarioPRJP1.node[47].networkLayer.arp 	sentReply:count 	11
attr title  "ARP replies sent, count"
scalar scenarioPRJP1.node[47].networkLayer.arp 	sentReq:count 	44
attr title  "ARP request sent, count"
scalar scenarioPRJP1.node[47].mobility 	startTime 	4.9
scalar scenarioPRJP1.node[47].mobility 	totalTime 	155
scalar scenarioPRJP1.node[47].mobility 	stopTime 	160
scalar scenarioPRJP1.node[47].mobility 	minSpeed 	2.4766053244785e-13
scalar scenarioPRJP1.node[47].mobility 	maxSpeed 	18.209075693681
scalar scenarioPRJP1.node[47].mobility 	totalDistance 	1484.7883873711
scalar scenarioPRJP1.node[47].mobility 	totalCO2Emission 	462.70102657233
scalar scenarioPRJP1.node[47].wlan.mgmt 	dataQueueLen:max 	95
attr interpolationmode  sample-hold
attr title  "data queue length, max"
scalar scenarioPRJP1.node[47].wlan.mgmt 	dataQueueLen:timeavg 	0.60715371786325
attr interpolationmode  sample-hold
attr title  "data queue length, timeavg"
scalar scenarioPRJP1.node[47].wlan.mgmt 	dropPkByQueue:count 	0
attr interpolationmode  none
attr source  dropPkByQueue
attr title  "packets dropped by queue, count"
scalar scenarioPRJP1.node[47].wlan.mgmt 	dropPkByQueue:sum(packetBytes) 	0
attr interpolationmode  none
attr source  dropPkByQueue
attr title  "packets dropped by queue, sum(packetBytes)"
scalar scenarioPRJP1.node[47].wlan.mac 	"number of received packets" 	2744
scalar scenarioPRJP1.node[47].wlan.mac 	"number of collisions" 	18296
scalar scenarioPRJP1.node[47].wlan.mac 	"number of internal collisions" 	0
scalar scenarioPRJP1.node[47].wlan.mac 	"number of retry for AC 0" 	7094
scalar scenarioPRJP1.node[47].wlan.mac 	"number of retry for AC 1" 	0
scalar scenarioPRJP1.node[47].wlan.mac 	"number of retry for AC 2" 	0
scalar scenarioPRJP1.node[47].wlan.mac 	"number of retry for AC 3" 	0
scalar scenarioPRJP1.node[47].wlan.mac 	"sent and received bits" 	5710240
scalar scenarioPRJP1.node[47].wlan.mac 	"sent packet within AC 0" 	1239
scalar scenarioPRJP1.node[47].wlan.mac 	"sent packet within AC 1" 	0
scalar scenarioPRJP1.node[47].wlan.mac 	"sent packet within AC 2" 	0
scalar scenarioPRJP1.node[47].wlan.mac 	"sent packet within AC 3" 	0
scalar scenarioPRJP1.node[47].wlan.mac 	"sent in TXOP " 	0
scalar scenarioPRJP1.node[47].wlan.mac 	"sentWithoutRetry AC 0" 	1070
scalar scenarioPRJP1.node[47].wlan.mac 	"sentWithoutRetry AC 1" 	0
scalar scenarioPRJP1.node[47].wlan.mac 	"sentWithoutRetry AC 2" 	0
scalar scenarioPRJP1.node[47].wlan.mac 	"sentWithoutRetry AC 3" 	0
scalar scenarioPRJP1.node[47].wlan.mac 	"numGivenUp AC 0" 	1124
scalar scenarioPRJP1.node[47].wlan.mac 	"numGivenUp AC 1" 	0
scalar scenarioPRJP1.node[47].wlan.mac 	"numGivenUp AC 2" 	0
scalar scenarioPRJP1.node[47].wlan.mac 	"numGivenUp AC 3" 	0
scalar scenarioPRJP1.node[47].wlan.mac 	"numDropped AC 0" 	296
scalar scenarioPRJP1.node[47].wlan.mac 	"numDropped AC 1" 	0
scalar scenarioPRJP1.node[47].wlan.mac 	"numDropped AC 2" 	0
scalar scenarioPRJP1.node[47].wlan.mac 	"numDropped AC 3" 	0
scalar scenarioPRJP1.node[47].wlan.mac 	rcvdPkFromLL:count 	96403
attr interpolationmode  none
attr source  packetReceivedFromLower
attr title  "packets received from lower layer, count"
scalar scenarioPRJP1.node[47].wlan.mac 	rcvdPkFromLL:sum(packetBytes) 	18115642
attr interpolationmode  none
attr source  packetReceivedFromLower
attr title  "packets received from lower layer, sum(packetBytes)"
scalar scenarioPRJP1.node[47].wlan.mac 	sentDownPk:count 	17428
attr interpolationmode  none
attr source  packetSentToLower
attr title  "packets sent to lower layer, count"
scalar scenarioPRJP1.node[47].wlan.mac 	sentDownPk:sum(packetBytes) 	3664876
attr interpolationmode  none
attr source  packetSentToLower
attr title  "packets sent to lower layer, sum(packetBytes)"
scalar scenarioPRJP1.node[47].wlan.mac 	rcvdPkFromHL:count 	7886
attr interpolationmode  none
attr source  packetReceivedFromUpper
attr title  "packets received from higher layer, count"
scalar scenarioPRJP1.node[47].wlan.mac 	rcvdPkFromHL:sum(packetBytes) 	1170916
attr interpolationmode  none
attr source  packetReceivedFromUpper
attr title  "packets received from higher layer, sum(packetBytes)"
scalar scenarioPRJP1.node[47].wlan.mac 	passedUpPk:count 	26216
attr interpolationmode  none
attr source  packetSentToUpper
attr title  "packets passed to higher layer, count"
scalar scenarioPRJP1.node[47].wlan.mac 	passedUpPk:sum(packetBytes) 	2281224
attr interpolationmode  none
attr source  packetSentToUpper
attr title  "packets passed to higher layer, sum(packetBytes)"
statistic scenarioPRJP1.node[47].wlan.radio 	radioChannel:histogram
field count 1
field mean 3
field stddev nan
field sum 3
field sqrsum 9
field min 3
field max 3
attr interpolationmode  sample-hold
attr source  radioChannelChanged
attr title  "Radio channel, histogram"
bin	-INF	0
bin	2	0
bin	3	1
bin	4	0
scalar scenarioPRJP1.node[47].wlan.radio 	transmissionState:count 	69712
attr interpolationmode  sample-hold
attr source  transmissionStateChanged
attr title  "Radio transmission state, count"
scalar scenarioPRJP1.node[47].wlan.radio 	receptionState:count 	231410
attr interpolationmode  sample-hold
attr source  receptionStateChanged
attr title  "Radio reception state, count"
scalar scenarioPRJP1.node[47].wlan.radio 	radioMode:count 	34858
attr interpolationmode  sample-hold
attr source  radioModeChanged
attr title  "Radio mode, count"
statistic scenarioPRJP1.node[47].wlan.radio 	symbolErrorRate:histogram
field count 0
field mean nan
field stddev nan
field sum 0
field sqrsum 0
field min nan
field max nan
attr source  symbolErrorRate
attr title  "Symbol error rate, histogram"
bin	-INF	0
bin	-0.5	0
bin	-0.46666666666667	0
bin	-0.43333333333333	0
bin	-0.4	0
bin	-0.36666666666667	0
bin	-0.33333333333333	0
bin	-0.3	0
bin	-0.26666666666667	0
bin	-0.23333333333333	0
bin	-0.2	0
bin	-0.16666666666667	0
bin	-0.13333333333333	0
bin	-0.1	0
bin	-0.066666666666667	0
bin	-0.033333333333333	0
bin	0	0
bin	0.033333333333333	0
bin	0.066666666666667	0
bin	0.1	0
bin	0.13333333333333	0
bin	0.16666666666667	0
bin	0.2	0
bin	0.23333333333333	0
bin	0.26666666666667	0
bin	0.3	0
bin	0.33333333333333	0
bin	0.36666666666667	0
bin	0.4	0
bin	0.43333333333333	0
bin	0.46666666666667	0
bin	0.5	0
statistic scenarioPRJP1.node[47].wlan.radio 	bitErrorRate:histogram
field count 0
field mean nan
field stddev nan
field sum 0
field sqrsum 0
field min nan
field max nan
attr source  bitErrorRate
attr title  "Bit error rate, histogram"
bin	-INF	0
bin	-0.5	0
bin	-0.46666666666667	0
bin	-0.43333333333333	0
bin	-0.4	0
bin	-0.36666666666667	0
bin	-0.33333333333333	0
bin	-0.3	0
bin	-0.26666666666667	0
bin	-0.23333333333333	0
bin	-0.2	0
bin	-0.16666666666667	0
bin	-0.13333333333333	0
bin	-0.1	0
bin	-0.066666666666667	0
bin	-0.033333333333333	0
bin	0	0
bin	0.033333333333333	0
bin	0.066666666666667	0
bin	0.1	0
bin	0.13333333333333	0
bin	0.16666666666667	0
bin	0.2	0
bin	0.23333333333333	0
bin	0.26666666666667	0
bin	0.3	0
bin	0.33333333333333	0
bin	0.36666666666667	0
bin	0.4	0
bin	0.43333333333333	0
bin	0.46666666666667	0
bin	0.5	0
statistic scenarioPRJP1.node[47].wlan.radio 	packetErrorRate:histogram
field count 96403
field mean 0.17090644623843
field stddev 0.36605263360104
field sum 16475.894136724
field sqrsum 15733.177251156
field min 0
field max 1
attr source  packetErrorRate
attr title  "Packet error rate, histogram"
bin	-INF	0
bin	-0.5	0
bin	-0.43333333333333	0
bin	-0.36666666666667	0
bin	-0.3	0
bin	-0.23333333333333	0
bin	-0.16666666666667	0
bin	-0.1	0
bin	-0.033333333333333	76821
bin	0.033333333333333	1304
bin	0.1	601
bin	0.16666666666667	423
bin	0.23333333333333	321
bin	0.3	274
bin	0.36666666666667	249
bin	0.43333333333333	200
bin	0.5	184
bin	0.56666666666667	180
bin	0.63333333333333	189
bin	0.7	222
bin	0.76666666666667	210
bin	0.83333333333333	254
bin	0.9	332
bin	0.96666666666667	14639
bin	1.0333333333333	0
bin	1.1	0
bin	1.1666666666667	0
bin	1.2333333333333	0
bin	1.3	0
bin	1.3666666666667	0
bin	1.4333333333333	0
bin	1.5	0
statistic scenarioPRJP1.node[47].wlan.radio 	minSNIR:histogram
field count 96403
field mean 1587.0333305667
field stddev 16432.014749402
field sum 152994774.16662
field sqrsum 26272418709271
field min 0.00017093818960977
field max 753239.71822808
attr source  minSNIR
attr title  "Min SNIR, histogram"
bin	-INF	0
bin	-65314.168354555	0
bin	-56605.44298147	0
bin	-47896.717608384	0
bin	-39187.992235299	0
bin	-30479.266862213	0
bin	-21770.541489128	0
bin	-13061.816116042	0
bin	-4353.0907429568	92673
bin	4355.6346301287	2044
bin	13064.360003214	466
bin	21773.0853763	261
bin	30481.810749385	143
bin	39190.536122471	132
bin	47899.261495556	102
bin	56607.986868642	77
bin	65316.712241727	73
bin	74025.437614813	62
bin	82734.162987898	27
bin	91442.888360983	37
bin	100151.61373407	29
bin	108860.33910715	23
bin	117569.06448024	9
bin	126277.78985333	19
bin	134986.51522641	13
bin	143695.2405995	16
bin	152403.96597258	10
bin	161112.69134567	15
bin	169821.41671875	9
bin	178530.14209184	11
bin	187238.86746492	6
bin	195947.59283801	146
scalar scenarioPRJP1.node[47].lo0.lo 	droppedPkBitError:count 	0
attr interpolationmode  none
attr source  dropPkBitError
attr title  "packets dropped/bit error, count"
scalar scenarioPRJP1.node[47].lo0.lo 	droppedPkBitError:sum(packetBytes) 	0
attr interpolationmode  none
attr source  dropPkBitError
attr title  "packets dropped/bit error, sum(packetBytes)"
scalar scenarioPRJP1.node[47].lo0.lo 	rcvdPkFromHL:count 	37
attr interpolationmode  none
attr source  packetReceivedFromUpper
attr title  "packets received from higher layer, count"
scalar scenarioPRJP1.node[47].lo0.lo 	rcvdPkFromHL:sum(packetBytes) 	19240
attr interpolationmode  none
attr source  packetReceivedFromUpper
attr title  "packets received from higher layer, sum(packetBytes)"
scalar scenarioPRJP1.node[47].lo0.lo 	passedUpPk:count 	37
attr interpolationmode  none
attr source  packetSentToUpper
attr title  "packets passed to higher layer, count"
scalar scenarioPRJP1.node[47].lo0.lo 	passedUpPk:sum(packetBytes) 	19240
attr interpolationmode  none
attr source  packetSentToUpper
attr title  "packets passed to higher layer, sum(packetBytes)"
scalar scenarioPRJP1.node[71].app 	"Total sent" 	373
scalar scenarioPRJP1.node[71].app 	"Total received" 	23
scalar scenarioPRJP1.node[71].app 	"Total deleted" 	0
scalar scenarioPRJP1.node[71].app 	dropPk:count 	0
attr interpolationmode  none
attr source  dropPk
attr title  "packets dropped, count"
scalar scenarioPRJP1.node[71].app 	dropPk:sum(packetBytes) 	0
attr interpolationmode  none
attr source  dropPk
attr title  "packets dropped, sum(packetBytes)"
scalar scenarioPRJP1.node[71].app 	outOfOrderPk:count 	7
attr interpolationmode  none
attr source  outOfOrderPk
attr title  "packets received out of order, count"
scalar scenarioPRJP1.node[71].app 	outOfOrderPk:sum(packetBytes) 	3584
attr interpolationmode  none
attr source  outOfOrderPk
attr title  "packets received out of order, sum(packetBytes)"
scalar scenarioPRJP1.node[71].app 	rcvdPk:count 	23
attr interpolationmode  none
attr source  rcvdPk
attr title  "packets received, count"
scalar scenarioPRJP1.node[71].app 	rcvdPk:sum(packetBytes) 	11776
attr interpolationmode  none
attr source  rcvdPk
attr title  "packets received, sum(packetBytes)"
statistic scenarioPRJP1.node[71].app 	endToEndDelay:histogram
field count 23
field mean 1.9892522345717
field stddev 3.3136840277467
field sum 45.752801395148
field sqrsum 332.58490279956
field min 0.002323420415
field max 14.934982555926
attr interpolationmode  none
attr source  messageAge(rcvdPk)
attr title  "delay, histogram"
attr unit  s
bin	-INF	0
bin	-7.4640061473405	0
bin	-6.4684955383064	0
bin	-5.4729849292724	0
bin	-4.4774743202383	0
bin	-3.4819637112042	0
bin	-2.4864531021702	0
bin	-1.4909424931361	0
bin	-0.49543188410203	10
bin	0.50007872493203	5
bin	1.4955893339661	3
bin	2.4910999430002	1
bin	3.4866105520342	1
bin	4.4821211610683	1
bin	5.4776317701024	1
bin	6.4731423791364	0
bin	7.4686529881705	0
bin	8.4641635972046	0
bin	9.4596742062386	0
bin	10.455184815273	0
bin	11.450695424307	0
bin	12.446206033341	0
bin	13.441716642375	0
bin	14.437227251409	1
bin	15.432737860443	0
bin	16.428248469477	0
bin	17.423759078511	0
bin	18.419269687545	0
bin	19.414780296579	0
bin	20.410290905613	0
bin	21.405801514647	0
bin	22.401312123681	0
scalar scenarioPRJP1.node[71].app 	sentPk:count 	373
attr interpolationmode  none
attr source  sentPk
attr title  "packets sent, count"
scalar scenarioPRJP1.node[71].app 	sentPk:sum(packetBytes) 	190976
attr interpolationmode  none
attr source  sentPk
attr title  "packets sent, sum(packetBytes)"
scalar scenarioPRJP1.node[71].udp 	droppedPkBadChecksum:count 	0
attr interpolationmode  none
attr title  "packets dropped (checksum error), count"
scalar scenarioPRJP1.node[71].udp 	droppedPkWrongPort:count 	0
attr interpolationmode  none
attr title  "packets dropped (wrong port), count"
scalar scenarioPRJP1.node[71].udp 	passedUpPk:count 	30
attr interpolationmode  none
attr title  "packets passed up, count"
scalar scenarioPRJP1.node[71].udp 	rcvdPk:count 	30
attr interpolationmode  none
attr source  rcvdPk
attr title  "packets received, count"
scalar scenarioPRJP1.node[71].udp 	rcvdPk:sum(packetBytes) 	15600
attr interpolationmode  none
attr source  rcvdPk
attr title  "packets received, sum(packetBytes)"
scalar scenarioPRJP1.node[71].udp 	sentPk:count 	373
attr interpolationmode  none
attr source  sentPk
attr title  "packets sent, count"
scalar scenarioPRJP1.node[71].udp 	sentPk:sum(packetBytes) 	193960
attr interpolationmode  none
attr source  sentPk
attr title  "packets sent, sum(packetBytes)"
scalar scenarioPRJP1.node[71].networkLayer.arp 	failedARPResolution:count 	1
attr title  "ARP failed resolutions, count"
scalar scenarioPRJP1.node[71].networkLayer.arp 	completedARPResolution:count 	162
attr title  "ARP completed resolutions, count"
scalar scenarioPRJP1.node[71].networkLayer.arp 	initiatedARPResolution:count 	21
attr title  "ARP initiated resolutions, count"
scalar scenarioPRJP1.node[71].networkLayer.arp 	sentReply:count 	13
attr title  "ARP replies sent, count"
scalar scenarioPRJP1.node[71].networkLayer.arp 	sentReq:count 	34
attr title  "ARP request sent, count"
scalar scenarioPRJP1.node[71].mobility 	startTime 	7.4
scalar scenarioPRJP1.node[71].mobility 	totalTime 	153.8
scalar scenarioPRJP1.node[71].mobility 	stopTime 	161.3
scalar scenarioPRJP1.node[71].mobility 	minSpeed 	2.4754853198123e-13
scalar scenarioPRJP1.node[71].mobility 	maxSpeed 	16.904231358731
scalar scenarioPRJP1.node[71].mobility 	totalDistance 	1483.894468134
scalar scenarioPRJP1.node[71].mobility 	totalCO2Emission 	435.95306920139
scalar scenarioPRJP1.node[71].wlan.mgmt 	dataQueueLen:max 	24
attr interpolationmode  sample-hold
attr title  "data queue length, max"
scalar scenarioPRJP1.node[71].wlan.mgmt 	dataQueueLen:timeavg 	0.091605394530975
attr interpolationmode  sample-hold
attr title  "data queue length, timeavg"
scalar scenarioPRJP1.node[71].wlan.mgmt 	dropPkByQueue:count 	0
attr interpolationmode  none
attr source  dropPkByQueue
attr title  "packets dropped by queue, count"
scalar scenarioPRJP1.node[71].wlan.mgmt 	dropPkByQueue:sum(packetBytes) 	0
attr interpolationmode  none
attr source  dropPkByQueue
attr title  "packets dropped by queue, sum(packetBytes)"
scalar scenarioPRJP1.node[71].wlan.mac 	"number of received packets" 	2093
scalar scenarioPRJP1.node[71].wlan.mac 	"number of collisions" 	20097
scalar scenarioPRJP1.node[71].wlan.mac 	"number of internal collisions" 	0
scalar scenarioPRJP1.node[71].wlan.mac 	"number of retry for AC 0" 	4844
scalar scenarioPRJP1.node[71].wlan.mac 	"number of retry for AC 1" 	0
scalar scenarioPRJP1.node[71].wlan.mac 	"number of retry for AC 2" 	0
scalar scenarioPRJP1.node[71].wlan.mac 	"number of retry for AC 3" 	0
scalar scenarioPRJP1.node[71].wlan.mac 	"sent and received bits" 	5249376
scalar scenarioPRJP1.node[71].wlan.mac 	"sent packet within AC 0" 	780
scalar scenarioPRJP1.node[71].wlan.mac 	"sent packet within AC 1" 	0
scalar scenarioPRJP1.node[71].wlan.mac 	"sent packet within AC 2" 	0
scalar scenarioPRJP1.node[71].wlan.mac 	"sent packet within AC 3" 	0
scalar scenarioPRJP1.node[71].wlan.mac 	"sent in TXOP " 	0
scalar scenarioPRJP1.node[71].wlan.mac 	"sentWithoutRetry AC 0" 	667
scalar scenarioPRJP1.node[71].wlan.mac 	"sentWithoutRetry AC 1" 	0
scalar scenarioPRJP1.node[71].wlan.mac 	"sentWithoutRetry AC 2" 	0
scalar scenarioPRJP1.node[71].wlan.mac 	"sentWithoutRetry AC 3" 	0
scalar scenarioPRJP1.node[71].wlan.mac 	"numGivenUp AC 0" 	765
scalar scenarioPRJP1.node[71].wlan.mac 	"numGivenUp AC 1" 	0
scalar scenarioPRJP1.node[71].wlan.mac 	"numGivenUp AC 2" 	0
scalar scenarioPRJP1.node[71].wlan.mac 	"numGivenUp AC 3" 	0
scalar scenarioPRJP1.node[71].wlan.mac 	"numDropped AC 0" 	67
scalar scenarioPRJP1.node[71].wlan.mac 	"numDropped AC 1" 	0
scalar scenarioPRJP1.node[71].wlan.mac 	"numDropped AC 2" 	0
scalar scenarioPRJP1.node[71].wlan.mac 	"numDropped AC 3" 	0
scalar scenarioPRJP1.node[71].wlan.mac 	rcvdPkFromLL:count 	86796
attr interpolationmode  none
attr source  packetReceivedFromLower
attr title  "packets received from lower layer, count"
scalar scenarioPRJP1.node[71].wlan.mac 	rcvdPkFromLL:sum(packetBytes) 	15368876
attr interpolationmode  none
attr source  packetReceivedFromLower
attr title  "packets received from lower layer, sum(packetBytes)"
scalar scenarioPRJP1.node[71].wlan.mac 	sentDownPk:count 	14615
attr interpolationmode  none
attr source  packetSentToLower
attr title  "packets sent to lower layer, count"
scalar scenarioPRJP1.node[71].wlan.mac 	sentDownPk:sum(packetBytes) 	2343802
attr interpolationmode  none
attr source  packetSentToLower
attr title  "packets sent to lower layer, sum(packetBytes)"
scalar scenarioPRJP1.node[71].wlan.mac 	rcvdPkFromHL:count 	7745
attr interpolationmode  none
attr source  packetReceivedFromUpper
attr title  "packets received from higher layer, count"
scalar scenarioPRJP1.node[71].wlan.mac 	rcvdPkFromHL:sum(packetBytes) 	887620
attr interpolationmode  none
attr source  packetReceivedFromUpper
attr title  "packets received from higher layer, sum(packetBytes)"
scalar scenarioPRJP1.node[71].wlan.mac 	passedUpPk:count 	26268
attr interpolationmode  none
attr source  packetSentToUpper
attr title  "packets passed to higher layer, count"
scalar scenarioPRJP1.node[71].wlan.mac 	passedUpPk:sum(packetBytes) 	2100232
attr interpolationmode  none
attr source  packetSentToUpper
attr title  "packets passed to higher layer, sum(packetBytes)"
statistic scenarioPRJP1.node[71].wlan.radio 	radioChannel:histogram
field count 1
field mean 3
field stddev nan
field sum 3
field sqrsum 9
field min 3
field max 3
attr interpolationmode  sample-hold
attr source  radioChannelChanged
attr title  "Radio channel, histogram"
bin	-INF	0
bin	2	0
bin	3	1
bin	4	0
scalar scenarioPRJP1.node[71].wlan.radio 	transmissionState:count 	58460
attr interpolationmode  sample-hold
attr source  transmissionStateChanged
attr title  "Radio transmission state, count"
scalar scenarioPRJP1.node[71].wlan.radio 	receptionState:count 	206551
attr interpolationmode  sample-hold
attr source  receptionStateChanged
attr title  "Radio reception state, count"
scalar scenarioPRJP1.node[71].wlan.radio 	radioMode:count 	29232
attr interpolationmode  sample-hold
attr source  radioModeChanged
attr title  "Radio mode, count"
statistic scenarioPRJP1.node[71].wlan.radio 	symbolErrorRate:histogram
field count 0
field mean nan
field stddev nan
field sum 0
field sqrsum 0
field min nan
field max nan
attr source  symbolErrorRate
attr title  "Symbol error rate, histogram"
bin	-INF	0
bin	-0.5	0
bin	-0.46666666666667	0
bin	-0.43333333333333	0
bin	-0.4	0
bin	-0.36666666666667	0
bin	-0.33333333333333	0
bin	-0.3	0
bin	-0.26666666666667	0
bin	-0.23333333333333	0
bin	-0.2	0
bin	-0.16666666666667	0
bin	-0.13333333333333	0
bin	-0.1	0
bin	-0.066666666666667	0
bin	-0.033333333333333	0
bin	0	0
bin	0.033333333333333	0
bin	0.066666666666667	0
bin	0.1	0
bin	0.13333333333333	0
bin	0.16666666666667	0
bin	0.2	0
bin	0.23333333333333	0
bin	0.26666666666667	0
bin	0.3	0
bin	0.33333333333333	0
bin	0.36666666666667	0
bin	0.4	0
bin	0.43333333333333	0
bin	0.46666666666667	0
bin	0.5	0
statistic scenarioPRJP1.node[71].wlan.radio 	bitErrorRate:histogram
field count 0
field mean nan
field stddev nan
field sum 0
field sqrsum 0
field min nan
field max nan
attr source  bitErrorRate
attr title  "Bit error rate, histogram"
bin	-INF	0
bin	-0.5	0
bin	-0.46666666666667	0
bin	-0.43333333333333	0
bin	-0.4	0
bin	-0.36666666666667	0
bin	-0.33333333333333	0
bin	-0.3	0
bin	-0.26666666666667	0
bin	-0.23333333333333	0
bin	-0.2	0
bin	-0.16666666666667	0
bin	-0.13333333333333	0
bin	-0.1	0
bin	-0.066666666666667	0
bin	-0.033333333333333	0
bin	0	0
bin	0.033333333333333	0
bin	0.066666666666667	0
bin	0.1	0
bin	0.13333333333333	0
bin	0.16666666666667	0
bin	0.2	0
bin	0.23333333333333	0
bin	0.26666666666667	0
bin	0.3	0
bin	0.33333333333333	0
bin	0.36666666666667	0
bin	0.4	0
bin	0.43333333333333	0
bin	0.46666666666667	0
bin	0.5	0
statistic scenarioPRJP1.node[71].wlan.radio 	packetErrorRate:histogram
field count 86796
field mean 0.20618960153114
field stddev 0.39405574551174
field sum 17896.432654497
field sqrsum 17167.579891753
field min 0
field max 1
attr source  packetErrorRate
attr title  "Packet error rate, histogram"
bin	-INF	0
bin	-0.11939783332923	0
bin	-0.10347812221867	0
bin	-0.087558411108104	0
bin	-0.07163869999754	0
bin	-0.055718988886975	0
bin	-0.039799277776411	0
bin	-0.023879566665847	0
bin	-0.0079598555552822	64325
bin	0.0079598555552822	1203
bin	0.023879566665847	568
bin	0.039799277776411	388
bin	0.055718988886975	295
bin	0.07163869999754	199
bin	0.087558411108104	186
bin	0.10347812221867	166
bin	0.11939783332923	133
bin	0.1353175444398	155
bin	0.15123725555036	130
bin	0.16715696666093	99
bin	0.18307667777149	96
bin	0.19899638888205	96
bin	0.21491609999262	76
bin	0.23083581110318	95
bin	0.24675552221375	79
bin	0.26267523332431	54
bin	0.27859494443488	59
bin	0.29451465554544	79
bin	0.310434366656	62
bin	0.32635407776657	67
bin	0.34227378887713	65
bin	0.3581934999877	18121
statistic scenarioPRJP1.node[71].wlan.radio 	minSNIR:histogram
field count 86796
field mean 584.0257747129
field stddev 6897.7144195691
field sum 50691101.141981
field sqrsum 4159177711063.7
field min 0.00030931893516244
field max 753239.71874963
attr source  minSNIR
attr title  "Min SNIR, histogram"
bin	-INF	0
bin	-716.72096799586	0
bin	-620.90297989807	0
bin	-525.08499180027	0
bin	-429.26700370248	0
bin	-333.44901560469	0
bin	-237.6310275069	0
bin	-141.81303940911	0
bin	-45.995051311314	63230
bin	49.822936786479	9148
bin	145.64092488427	3231
bin	241.45891298206	1647
bin	337.27690107986	1122
bin	433.09488917765	845
bin	528.91287727544	602
bin	624.73086537323	469
bin	720.54885347102	427
bin	816.36684156882	352
bin	912.18482966661	291
bin	1008.0028177644	282
bin	1103.8208058622	253
bin	1199.63879396	209
bin	1295.4567820578	227
bin	1391.2747701556	205
bin	1487.0927582534	151
bin	1582.9107463512	133
bin	1678.7287344489	123
bin	1774.5467225467	115
bin	1870.3647106445	108
bin	1966.1826987423	86
bin	2062.0006868401	94
bin	2157.8186749379	3446
scalar scenarioPRJP1.node[71].lo0.lo 	droppedPkBitError:count 	0
attr interpolationmode  none
attr source  dropPkBitError
attr title  "packets dropped/bit error, count"
scalar scenarioPRJP1.node[71].lo0.lo 	droppedPkBitError:sum(packetBytes) 	0
attr interpolationmode  none
attr source  dropPkBitError
attr title  "packets dropped/bit error, sum(packetBytes)"
scalar scenarioPRJP1.node[71].lo0.lo 	rcvdPkFromHL:count 	30
attr interpolationmode  none
attr source  packetReceivedFromUpper
attr title  "packets received from higher layer, count"
scalar scenarioPRJP1.node[71].lo0.lo 	rcvdPkFromHL:sum(packetBytes) 	15600
attr interpolationmode  none
attr source  packetReceivedFromUpper
attr title  "packets received from higher layer, sum(packetBytes)"
scalar scenarioPRJP1.node[71].lo0.lo 	passedUpPk:count 	30
attr interpolationmode  none
attr source  packetSentToUpper
attr title  "packets passed to higher layer, count"
scalar scenarioPRJP1.node[71].lo0.lo 	passedUpPk:sum(packetBytes) 	15600
attr interpolationmode  none
attr source  packetSentToUpper
attr title  "packets passed to higher layer, sum(packetBytes)"
scalar scenarioPRJP1.node[59].app 	"Total sent" 	375
scalar scenarioPRJP1.node[59].app 	"Total received" 	28
scalar scenarioPRJP1.node[59].app 	"Total deleted" 	3
scalar scenarioPRJP1.node[59].app 	dropPk:count 	3
attr interpolationmode  none
attr source  dropPk
attr title  "packets dropped, count"
scalar scenarioPRJP1.node[59].app 	dropPk:sum(packetBytes) 	1536
attr interpolationmode  none
attr source  dropPk
attr title  "packets dropped, sum(packetBytes)"
scalar scenarioPRJP1.node[59].app 	outOfOrderPk:count 	5
attr interpolationmode  none
attr source  outOfOrderPk
attr title  "packets received out of order, count"
scalar scenarioPRJP1.node[59].app 	outOfOrderPk:sum(packetBytes) 	2560
attr interpolationmode  none
attr source  outOfOrderPk
attr title  "packets received out of order, sum(packetBytes)"
scalar scenarioPRJP1.node[59].app 	rcvdPk:count 	28
attr interpolationmode  none
attr source  rcvdPk
attr title  "packets received, count"
scalar scenarioPRJP1.node[59].app 	rcvdPk:sum(packetBytes) 	14336
attr interpolationmode  none
attr source  rcvdPk
attr title  "packets received, sum(packetBytes)"
statistic scenarioPRJP1.node[59].app 	endToEndDelay:histogram
field count 28
field mean 2.6252353990296
field stddev 4.5741886540763
field sum 73.506591172828
field sqrsum 757.89855497208
field min 0.002173362455
field max 16.205755310931
attr interpolationmode  none
attr source  messageAge(rcvdPk)
attr title  "delay, histogram"
attr unit  s
bin	-INF	0
bin	-8.099617611783	0
bin	-7.0193788152179	0
bin	-5.9391400186529	0
bin	-4.8589012220878	0
bin	-3.7786624255227	0
bin	-2.6984236289577	0
bin	-1.6181848323926	0
bin	-0.53794603582753	16
bin	0.54229276073753	3
bin	1.6225315573026	2
bin	2.7027703538677	0
bin	3.7830091504327	1
bin	4.8632479469978	1
bin	5.9434867435629	2
bin	7.0237255401279	0
bin	8.103964336693	0
bin	9.1842031332581	0
bin	10.264441929823	1
bin	11.344680726388	0
bin	12.424919522953	0
bin	13.505158319518	0
bin	14.585397116083	1
bin	15.665635912648	1
bin	16.745874709214	0
bin	17.826113505779	0
bin	18.906352302344	0
bin	19.986591098909	0
bin	21.066829895474	0
bin	22.147068692039	0
bin	23.227307488604	0
bin	24.307546285169	0
scalar scenarioPRJP1.node[59].app 	sentPk:count 	375
attr interpolationmode  none
attr source  sentPk
attr title  "packets sent, count"
scalar scenarioPRJP1.node[59].app 	sentPk:sum(packetBytes) 	192000
attr interpolationmode  none
attr source  sentPk
attr title  "packets sent, sum(packetBytes)"
scalar scenarioPRJP1.node[59].udp 	droppedPkBadChecksum:count 	0
attr interpolationmode  none
attr title  "packets dropped (checksum error), count"
scalar scenarioPRJP1.node[59].udp 	droppedPkWrongPort:count 	0
attr interpolationmode  none
attr title  "packets dropped (wrong port), count"
scalar scenarioPRJP1.node[59].udp 	passedUpPk:count 	36
attr interpolationmode  none
attr title  "packets passed up, count"
scalar scenarioPRJP1.node[59].udp 	rcvdPk:count 	36
attr interpolationmode  none
attr source  rcvdPk
attr title  "packets received, count"
scalar scenarioPRJP1.node[59].udp 	rcvdPk:sum(packetBytes) 	18720
attr interpolationmode  none
attr source  rcvdPk
attr title  "packets received, sum(packetBytes)"
scalar scenarioPRJP1.node[59].udp 	sentPk:count 	375
attr interpolationmode  none
attr source  sentPk
attr title  "packets sent, count"
scalar scenarioPRJP1.node[59].udp 	sentPk:sum(packetBytes) 	195000
attr interpolationmode  none
attr source  sentPk
attr title  "packets sent, sum(packetBytes)"
scalar scenarioPRJP1.node[59].networkLayer.arp 	failedARPResolution:count 	7
attr title  "ARP failed resolutions, count"
scalar scenarioPRJP1.node[59].networkLayer.arp 	completedARPResolution:count 	149
attr title  "ARP completed resolutions, count"
scalar scenarioPRJP1.node[59].networkLayer.arp 	initiatedARPResolution:count 	22
attr title  "ARP initiated resolutions, count"
scalar scenarioPRJP1.node[59].networkLayer.arp 	sentReply:count 	8
attr title  "ARP replies sent, count"
scalar scenarioPRJP1.node[59].networkLayer.arp 	sentReq:count 	43
attr title  "ARP request sent, count"
scalar scenarioPRJP1.node[59].mobility 	startTime 	5.1
scalar scenarioPRJP1.node[59].mobility 	totalTime 	156.1
scalar scenarioPRJP1.node[59].mobility 	stopTime 	161.3
scalar scenarioPRJP1.node[59].mobility 	minSpeed 	2.4754940487685e-13
scalar scenarioPRJP1.node[59].mobility 	maxSpeed 	17.459671677231
scalar scenarioPRJP1.node[59].mobility 	totalDistance 	1447.9423703064
scalar scenarioPRJP1.node[59].mobility 	totalCO2Emission 	413.75340070714
scalar scenarioPRJP1.node[59].wlan.mgmt 	dataQueueLen:max 	10
attr interpolationmode  sample-hold
attr title  "data queue length, max"
scalar scenarioPRJP1.node[59].wlan.mgmt 	dataQueueLen:timeavg 	0.0070085954651985
attr interpolationmode  sample-hold
attr title  "data queue length, timeavg"
scalar scenarioPRJP1.node[59].wlan.mgmt 	dropPkByQueue:count 	0
attr interpolationmode  none
attr source  dropPkByQueue
attr title  "packets dropped by queue, count"
scalar scenarioPRJP1.node[59].wlan.mgmt 	dropPkByQueue:sum(packetBytes) 	0
attr interpolationmode  none
attr source  dropPkByQueue
attr title  "packets dropped by queue, sum(packetBytes)"
scalar scenarioPRJP1.node[59].wlan.mac 	"number of received packets" 	1937
scalar scenarioPRJP1.node[59].wlan.mac 	"number of collisions" 	18359
scalar scenarioPRJP1.node[59].wlan.mac 	"number of internal collisions" 	0
scalar scenarioPRJP1.node[59].wlan.mac 	"number of retry for AC 0" 	4863
scalar scenarioPRJP1.node[59].wlan.mac 	"number of retry for AC 1" 	0
scalar scenarioPRJP1.node[59].wlan.mac 	"number of retry for AC 2" 	0
scalar scenarioPRJP1.node[59].wlan.mac 	"number of retry for AC 3" 	0
scalar scenarioPRJP1.node[59].wlan.mac 	"sent and received bits" 	5083392
scalar scenarioPRJP1.node[59].wlan.mac 	"sent packet within AC 0" 	995
scalar scenarioPRJP1.node[59].wlan.mac 	"sent packet within AC 1" 	0
scalar scenarioPRJP1.node[59].wlan.mac 	"sent packet within AC 2" 	0
scalar scenarioPRJP1.node[59].wlan.mac 	"sent packet within AC 3" 	0
scalar scenarioPRJP1.node[59].wlan.mac 	"sent in TXOP " 	0
scalar scenarioPRJP1.node[59].wlan.mac 	"sentWithoutRetry AC 0" 	887
scalar scenarioPRJP1.node[59].wlan.mac 	"sentWithoutRetry AC 1" 	0
scalar scenarioPRJP1.node[59].wlan.mac 	"sentWithoutRetry AC 2" 	0
scalar scenarioPRJP1.node[59].wlan.mac 	"sentWithoutRetry AC 3" 	0
scalar scenarioPRJP1.node[59].wlan.mac 	"numGivenUp AC 0" 	773
scalar scenarioPRJP1.node[59].wlan.mac 	"numGivenUp AC 1" 	0
scalar scenarioPRJP1.node[59].wlan.mac 	"numGivenUp AC 2" 	0
scalar scenarioPRJP1.node[59].wlan.mac 	"numGivenUp AC 3" 	0
scalar scenarioPRJP1.node[59].wlan.mac 	"numDropped AC 0" 	38
scalar scenarioPRJP1.node[59].wlan.mac 	"numDropped AC 1" 	0
scalar scenarioPRJP1.node[59].wlan.mac 	"numDropped AC 2" 	0
scalar scenarioPRJP1.node[59].wlan.mac 	"numDropped AC 3" 	0
scalar scenarioPRJP1.node[59].wlan.mac 	rcvdPkFromLL:count 	83358
attr interpolationmode  none
attr source  packetReceivedFromLower
attr title  "packets received from lower layer, count"
scalar scenarioPRJP1.node[59].wlan.mac 	rcvdPkFromLL:sum(packetBytes) 	15657188
attr interpolationmode  none
attr source  packetReceivedFromLower
attr title  "packets received from lower layer, sum(packetBytes)"
scalar scenarioPRJP1.node[59].wlan.mac 	sentDownPk:count 	13738
attr interpolationmode  none
attr source  packetSentToLower
attr title  "packets sent to lower layer, count"
scalar scenarioPRJP1.node[59].wlan.mac 	sentDownPk:sum(packetBytes) 	2458278
attr interpolationmode  none
attr source  packetSentToLower
attr title  "packets sent to lower layer, sum(packetBytes)"
scalar scenarioPRJP1.node[59].wlan.mac 	rcvdPkFromHL:count 	6976
attr interpolationmode  none
attr source  packetReceivedFromUpper
attr title  "packets received from higher layer, count"
scalar scenarioPRJP1.node[59].wlan.mac 	rcvdPkFromHL:sum(packetBytes) 	884992
attr interpolationmode  none
attr source  packetReceivedFromUpper
attr title  "packets received from higher layer, sum(packetBytes)"
scalar scenarioPRJP1.node[59].wlan.mac 	passedUpPk:count 	25360
attr interpolationmode  none
attr source  packetSentToUpper
attr title  "packets passed to higher layer, count"
scalar scenarioPRJP1.node[59].wlan.mac 	passedUpPk:sum(packetBytes) 	2067932
attr interpolationmode  none
attr source  packetSentToUpper
attr title  "packets passed to higher layer, sum(packetBytes)"
statistic scenarioPRJP1.node[59].wlan.radio 	radioChannel:histogram
field count 1
field mean 3
field stddev nan
field sum 3
field sqrsum 9
field min 3
field max 3
attr interpolationmode  sample-hold
attr source  radioChannelChanged
attr title  "Radio channel, histogram"
bin	-INF	0
bin	2	0
bin	3	1
bin	4	0
scalar scenarioPRJP1.node[59].wlan.radio 	transmissionState:count 	54952
attr interpolationmode  sample-hold
attr source  transmissionStateChanged
attr title  "Radio transmission state, count"
scalar scenarioPRJP1.node[59].wlan.radio 	receptionState:count 	197740
attr interpolationmode  sample-hold
attr source  receptionStateChanged
attr title  "Radio reception state, count"
scalar scenarioPRJP1.node[59].wlan.radio 	radioMode:count 	27478
attr interpolationmode  sample-hold
attr source  radioModeChanged
attr title  "Radio mode, count"
statistic scenarioPRJP1.node[59].wlan.radio 	symbolErrorRate:histogram
field count 0
field mean nan
field stddev nan
field sum 0
field sqrsum 0
field min nan
field max nan
attr source  symbolErrorRate
attr title  "Symbol error rate, histogram"
bin	-INF	0
bin	-0.5	0
bin	-0.46666666666667	0
bin	-0.43333333333333	0
bin	-0.4	0
bin	-0.36666666666667	0
bin	-0.33333333333333	0
bin	-0.3	0
bin	-0.26666666666667	0
bin	-0.23333333333333	0
bin	-0.2	0
bin	-0.16666666666667	0
bin	-0.13333333333333	0
bin	-0.1	0
bin	-0.066666666666667	0
bin	-0.033333333333333	0
bin	0	0
bin	0.033333333333333	0
bin	0.066666666666667	0
bin	0.1	0
bin	0.13333333333333	0
bin	0.16666666666667	0
bin	0.2	0
bin	0.23333333333333	0
bin	0.26666666666667	0
bin	0.3	0
bin	0.33333333333333	0
bin	0.36666666666667	0
bin	0.4	0
bin	0.43333333333333	0
bin	0.46666666666667	0
bin	0.5	0
statistic scenarioPRJP1.node[59].wlan.radio 	bitErrorRate:histogram
field count 0
field mean nan
field stddev nan
field sum 0
field sqrsum 0
field min nan
field max nan
attr source  bitErrorRate
attr title  "Bit error rate, histogram"
bin	-INF	0
bin	-0.5	0
bin	-0.46666666666667	0
bin	-0.43333333333333	0
bin	-0.4	0
bin	-0.36666666666667	0
bin	-0.33333333333333	0
bin	-0.3	0
bin	-0.26666666666667	0
bin	-0.23333333333333	0
bin	-0.2	0
bin	-0.16666666666667	0
bin	-0.13333333333333	0
bin	-0.1	0
bin	-0.066666666666667	0
bin	-0.033333333333333	0
bin	0	0
bin	0.033333333333333	0
bin	0.066666666666667	0
bin	0.1	0
bin	0.13333333333333	0
bin	0.16666666666667	0
bin	0.2	0
bin	0.23333333333333	0
bin	0.26666666666667	0
bin	0.3	0
bin	0.33333333333333	0
bin	0.36666666666667	0
bin	0.4	0
bin	0.43333333333333	0
bin	0.46666666666667	0
bin	0.5	0
statistic scenarioPRJP1.node[59].wlan.radio 	packetErrorRate:histogram
field count 83358
field mean 0.19935312687118
field stddev 0.39006315130544
field sum 16617.677949728
field sqrsum 15995.492093678
field min 0
field max 1
attr source  packetErrorRate
attr title  "Packet error rate, histogram"
bin	-INF	0
bin	-0.5	0
bin	-0.43333333333333	0
bin	-0.36666666666667	0
bin	-0.3	0
bin	-0.23333333333333	0
bin	-0.16666666666667	0
bin	-0.1	0
bin	-0.033333333333333	64228
bin	0.033333333333333	1037
bin	0.1	504
bin	0.16666666666667	302
bin	0.23333333333333	242
bin	0.3	205
bin	0.36666666666667	206
bin	0.43333333333333	196
bin	0.5	167
bin	0.56666666666667	157
bin	0.63333333333333	181
bin	0.7	190
bin	0.76666666666667	191
bin	0.83333333333333	217
bin	0.9	342
bin	0.96666666666667	14993
bin	1.0333333333333	0
bin	1.1	0
bin	1.1666666666667	0
bin	1.2333333333333	0
bin	1.3	0
bin	1.3666666666667	0
bin	1.4333333333333	0
bin	1.5	0
statistic scenarioPRJP1.node[59].wlan.radio 	minSNIR:histogram
field count 83358
field mean 590.99049303539
field stddev 4769.6666570224
field sum 49263785.518444
field sqrsum 1925462840525.4
field min 0.00071494217343099
field max 562852.48220421
attr source  minSNIR
attr title  "Min SNIR, histogram"
bin	-INF	0
bin	-1064.5756400588	0
bin	-922.55323575121	0
bin	-780.53083144362	0
bin	-638.50842713603	0
bin	-496.48602282843	0
bin	-354.46361852084	0
bin	-212.44121421325	0
bin	-70.418809905653	53486
bin	71.60359440194	10414
bin	213.62599870953	3212
bin	355.64840301713	1730
bin	497.67080732472	1362
bin	639.69321163231	1350
bin	781.71561593991	1203
bin	923.7380202475	1192
bin	1065.7604245551	1043
bin	1207.7828288627	878
bin	1349.8052331703	827
bin	1491.8276374779	732
bin	1633.8500417855	611
bin	1775.8724460931	563
bin	1917.8948504007	421
bin	2059.9172547082	362
bin	2201.9396590158	287
bin	2343.9620633234	266
bin	2485.984467631	234
bin	2628.0068719386	238
bin	2770.0292762462	197
bin	2912.0516805538	176
bin	3054.0740848614	140
bin	3196.096489169	2434
scalar scenarioPRJP1.node[59].lo0.lo 	droppedPkBitError:count 	0
attr interpolationmode  none
attr source  dropPkBitError
attr title  "packets dropped/bit error, count"
scalar scenarioPRJP1.node[59].lo0.lo 	droppedPkBitError:sum(packetBytes) 	0
attr interpolationmode  none
attr source  dropPkBitError
attr title  "packets dropped/bit error, sum(packetBytes)"
scalar scenarioPRJP1.node[59].lo0.lo 	rcvdPkFromHL:count 	36
attr interpolationmode  none
attr source  packetReceivedFromUpper
attr title  "packets received from higher layer, count"
scalar scenarioPRJP1.node[59].lo0.lo 	rcvdPkFromHL:sum(packetBytes) 	18720
attr interpolationmode  none
attr source  packetReceivedFromUpper
attr title  "packets received from higher layer, sum(packetBytes)"
scalar scenarioPRJP1.node[59].lo0.lo 	passedUpPk:count 	36
attr interpolationmode  none
attr source  packetSentToUpper
attr title  "packets passed to higher layer, count"
scalar scenarioPRJP1.node[59].lo0.lo 	passedUpPk:sum(packetBytes) 	18720
attr interpolationmode  none
attr source  packetSentToUpper
attr title  "packets passed to higher layer, sum(packetBytes)"
scalar scenarioPRJP1.node[31].app 	"Total sent" 	603
scalar scenarioPRJP1.node[31].app 	"Total received" 	37
scalar scenarioPRJP1.node[31].app 	"Total deleted" 	2
scalar scenarioPRJP1.node[31].app 	dropPk:count 	2
attr interpolationmode  none
attr source  dropPk
attr title  "packets dropped, count"
scalar scenarioPRJP1.node[31].app 	dropPk:sum(packetBytes) 	1024
attr interpolationmode  none
attr source  dropPk
attr title  "packets dropped, sum(packetBytes)"
scalar scenarioPRJP1.node[31].app 	outOfOrderPk:count 	9
attr interpolationmode  none
attr source  outOfOrderPk
attr title  "packets received out of order, count"
scalar scenarioPRJP1.node[31].app 	outOfOrderPk:sum(packetBytes) 	4608
attr interpolationmode  none
attr source  outOfOrderPk
attr title  "packets received out of order, sum(packetBytes)"
scalar scenarioPRJP1.node[31].app 	rcvdPk:count 	37
attr interpolationmode  none
attr source  rcvdPk
attr title  "packets received, count"
scalar scenarioPRJP1.node[31].app 	rcvdPk:sum(packetBytes) 	18944
attr interpolationmode  none
attr source  rcvdPk
attr title  "packets received, sum(packetBytes)"
statistic scenarioPRJP1.node[31].app 	endToEndDelay:histogram
field count 37
field mean 2.348769767728
field stddev 5.1065014319531
field sum 86.904481405937
field sqrsum 1142.8674660898
field min 0.00121004176
field max 19.685492916007
attr interpolationmode  none
attr source  messageAge(rcvdPk)
attr title  "delay, histogram"
attr unit  s
bin	-INF	0
bin	-9.8409313953635	0
bin	-8.5286458704137	0
bin	-7.2163603454639	0
bin	-5.9040748205141	0
bin	-4.5917892955643	0
bin	-3.2795037706145	0
bin	-1.9672182456647	0
bin	-0.6549327207149	25
bin	0.6573528042349	5
bin	1.9696383291847	1
bin	3.2819238541345	0
bin	4.5942093790843	1
bin	5.9064949040341	0
bin	7.2187804289839	1
bin	8.5310659539337	0
bin	9.8433514788835	0
bin	11.155637003833	0
bin	12.467922528783	1
bin	13.780208053733	0
bin	15.092493578683	2
bin	16.404779103632	0
bin	17.717064628582	0
bin	19.029350153532	1
bin	20.341635678482	0
bin	21.653921203432	0
bin	22.966206728382	0
bin	24.278492253331	0
bin	25.590777778281	0
bin	26.903063303231	0
bin	28.215348828181	0
bin	29.527634353131	0
scalar scenarioPRJP1.node[31].app 	sentPk:count 	603
attr interpolationmode  none
attr source  sentPk
attr title  "packets sent, count"
scalar scenarioPRJP1.node[31].app 	sentPk:sum(packetBytes) 	308736
attr interpolationmode  none
attr source  sentPk
attr title  "packets sent, sum(packetBytes)"
scalar scenarioPRJP1.node[31].udp 	droppedPkBadChecksum:count 	0
attr interpolationmode  none
attr title  "packets dropped (checksum error), count"
scalar scenarioPRJP1.node[31].udp 	droppedPkWrongPort:count 	0
attr interpolationmode  none
attr title  "packets dropped (wrong port), count"
scalar scenarioPRJP1.node[31].udp 	passedUpPk:count 	48
attr interpolationmode  none
attr title  "packets passed up, count"
scalar scenarioPRJP1.node[31].udp 	rcvdPk:count 	48
attr interpolationmode  none
attr source  rcvdPk
attr title  "packets received, count"
scalar scenarioPRJP1.node[31].udp 	rcvdPk:sum(packetBytes) 	24960
attr interpolationmode  none
attr source  rcvdPk
attr title  "packets received, sum(packetBytes)"
scalar scenarioPRJP1.node[31].udp 	sentPk:count 	603
attr interpolationmode  none
attr source  sentPk
attr title  "packets sent, count"
scalar scenarioPRJP1.node[31].udp 	sentPk:sum(packetBytes) 	313560
attr interpolationmode  none
attr source  sentPk
attr title  "packets sent, sum(packetBytes)"
scalar scenarioPRJP1.node[31].networkLayer.arp 	failedARPResolution:count 	5
attr title  "ARP failed resolutions, count"
scalar scenarioPRJP1.node[31].networkLayer.arp 	completedARPResolution:count 	195
attr title  "ARP completed resolutions, count"
scalar scenarioPRJP1.node[31].networkLayer.arp 	initiatedARPResolution:count 	27
attr title  "ARP initiated resolutions, count"
scalar scenarioPRJP1.node[31].networkLayer.arp 	sentReply:count 	18
attr title  "ARP replies sent, count"
scalar scenarioPRJP1.node[31].networkLayer.arp 	sentReq:count 	48
attr title  "ARP request sent, count"
scalar scenarioPRJP1.node[31].mobility 	startTime 	2.5
scalar scenarioPRJP1.node[31].mobility 	totalTime 	243.3
scalar scenarioPRJP1.node[31].mobility 	stopTime 	245.9
scalar scenarioPRJP1.node[31].mobility 	minSpeed 	2.4755645939127e-13
scalar scenarioPRJP1.node[31].mobility 	maxSpeed 	18.200946234864
scalar scenarioPRJP1.node[31].mobility 	totalDistance 	2234.0249011512
scalar scenarioPRJP1.node[31].mobility 	totalCO2Emission 	664.78592970829
scalar scenarioPRJP1.node[31].wlan.mgmt 	dataQueueLen:max 	23
attr interpolationmode  sample-hold
attr title  "data queue length, max"
scalar scenarioPRJP1.node[31].wlan.mgmt 	dataQueueLen:timeavg 	0.045344631416495
attr interpolationmode  sample-hold
attr title  "data queue length, timeavg"
scalar scenarioPRJP1.node[31].wlan.mgmt 	dropPkByQueue:count 	0
attr interpolationmode  none
attr source  dropPkByQueue
attr title  "packets dropped by queue, count"
scalar scenarioPRJP1.node[31].wlan.mgmt 	dropPkByQueue:sum(packetBytes) 	0
attr interpolationmode  none
attr source  dropPkByQueue
attr title  "packets dropped by queue, sum(packetBytes)"
scalar scenarioPRJP1.node[31].wlan.mac 	"number of received packets" 	4200
scalar scenarioPRJP1.node[31].wlan.mac 	"number of collisions" 	28921
scalar scenarioPRJP1.node[31].wlan.mac 	"number of internal collisions" 	0
scalar scenarioPRJP1.node[31].wlan.mac 	"number of retry for AC 0" 	8960
scalar scenarioPRJP1.node[31].wlan.mac 	"number of retry for AC 1" 	0
scalar scenarioPRJP1.node[31].wlan.mac 	"number of retry for AC 2" 	0
scalar scenarioPRJP1.node[31].wlan.mac 	"number of retry for AC 3" 	0
scalar scenarioPRJP1.node[31].wlan.mac 	"sent and received bits" 	8066784
scalar scenarioPRJP1.node[31].wlan.mac 	"sent packet within AC 0" 	1658
scalar scenarioPRJP1.node[31].wlan.mac 	"sent packet within AC 1" 	0
scalar scenarioPRJP1.node[31].wlan.mac 	"sent packet within AC 2" 	0
scalar scenarioPRJP1.node[31].wlan.mac 	"sent packet within AC 3" 	0
scalar scenarioPRJP1.node[31].wlan.mac 	"sent in TXOP " 	0
scalar scenarioPRJP1.node[31].wlan.mac 	"sentWithoutRetry AC 0" 	1507
scalar scenarioPRJP1.node[31].wlan.mac 	"sentWithoutRetry AC 1" 	0
scalar scenarioPRJP1.node[31].wlan.mac 	"sentWithoutRetry AC 2" 	0
scalar scenarioPRJP1.node[31].wlan.mac 	"sentWithoutRetry AC 3" 	0
scalar scenarioPRJP1.node[31].wlan.mac 	"numGivenUp AC 0" 	1441
scalar scenarioPRJP1.node[31].wlan.mac 	"numGivenUp AC 1" 	0
scalar scenarioPRJP1.node[31].wlan.mac 	"numGivenUp AC 2" 	0
scalar scenarioPRJP1.node[31].wlan.mac 	"numGivenUp AC 3" 	0
scalar scenarioPRJP1.node[31].wlan.mac 	"numDropped AC 0" 	169
scalar scenarioPRJP1.node[31].wlan.mac 	"numDropped AC 1" 	0
scalar scenarioPRJP1.node[31].wlan.mac 	"numDropped AC 2" 	0
scalar scenarioPRJP1.node[31].wlan.mac 	"numDropped AC 3" 	0
scalar scenarioPRJP1.node[31].wlan.mac 	rcvdPkFromLL:count 	123626
attr interpolationmode  none
attr source  packetReceivedFromLower
attr title  "packets received from lower layer, count"
scalar scenarioPRJP1.node[31].wlan.mac 	rcvdPkFromLL:sum(packetBytes) 	25058206
attr interpolationmode  none
attr source  packetReceivedFromLower
attr title  "packets received from lower layer, sum(packetBytes)"
scalar scenarioPRJP1.node[31].wlan.mac 	sentDownPk:count 	23471
attr interpolationmode  none
attr source  packetSentToLower
attr title  "packets sent to lower layer, count"
scalar scenarioPRJP1.node[31].wlan.mac 	sentDownPk:sum(packetBytes) 	4477776
attr interpolationmode  none
attr source  packetSentToLower
attr title  "packets sent to lower layer, sum(packetBytes)"
scalar scenarioPRJP1.node[31].wlan.mac 	rcvdPkFromHL:count 	10480
attr interpolationmode  none
attr source  packetReceivedFromUpper
attr title  "packets received from higher layer, count"
scalar scenarioPRJP1.node[31].wlan.mac 	rcvdPkFromHL:sum(packetBytes) 	1514748
attr interpolationmode  none
attr source  packetReceivedFromUpper
attr title  "packets received from higher layer, sum(packetBytes)"
scalar scenarioPRJP1.node[31].wlan.mac 	passedUpPk:count 	29260
attr interpolationmode  none
attr source  packetSentToUpper
attr title  "packets passed to higher layer, count"
scalar scenarioPRJP1.node[31].wlan.mac 	passedUpPk:sum(packetBytes) 	2548624
attr interpolationmode  none
attr source  packetSentToUpper
attr title  "packets passed to higher layer, sum(packetBytes)"
statistic scenarioPRJP1.node[31].wlan.radio 	radioChannel:histogram
field count 1
field mean 3
field stddev nan
field sum 3
field sqrsum 9
field min 3
field max 3
attr interpolationmode  sample-hold
attr source  radioChannelChanged
attr title  "Radio channel, histogram"
bin	-INF	0
bin	2	0
bin	3	1
bin	4	0
scalar scenarioPRJP1.node[31].wlan.radio 	transmissionState:count 	93884
attr interpolationmode  sample-hold
attr source  transmissionStateChanged
attr title  "Radio transmission state, count"
scalar scenarioPRJP1.node[31].wlan.radio 	receptionState:count 	298970
attr interpolationmode  sample-hold
attr source  receptionStateChanged
attr title  "Radio reception state, count"
scalar scenarioPRJP1.node[31].wlan.radio 	radioMode:count 	46944
attr interpolationmode  sample-hold
attr source  radioModeChanged
attr title  "Radio mode, count"
statistic scenarioPRJP1.node[31].wlan.radio 	symbolErrorRate:histogram
field count 0
field mean nan
field stddev nan
field sum 0
field sqrsum 0
field min nan
field max nan
attr source  symbolErrorRate
attr title  "Symbol error rate, histogram"
bin	-INF	0
bin	-0.5	0
bin	-0.46666666666667	0
bin	-0.43333333333333	0
bin	-0.4	0
bin	-0.36666666666667	0
bin	-0.33333333333333	0
bin	-0.3	0
bin	-0.26666666666667	0
bin	-0.23333333333333	0
bin	-0.2	0
bin	-0.16666666666667	0
bin	-0.13333333333333	0
bin	-0.1	0
bin	-0.066666666666667	0
bin	-0.033333333333333	0
bin	0	0
bin	0.033333333333333	0
bin	0.066666666666667	0
bin	0.1	0
bin	0.13333333333333	0
bin	0.16666666666667	0
bin	0.2	0
bin	0.23333333333333	0
bin	0.26666666666667	0
bin	0.3	0
bin	0.33333333333333	0
bin	0.36666666666667	0
bin	0.4	0
bin	0.43333333333333	0
bin	0.46666666666667	0
bin	0.5	0
statistic scenarioPRJP1.node[31].wlan.radio 	bitErrorRate:histogram
field count 0
field mean nan
field stddev nan
field sum 0
field sqrsum 0
field min nan
field max nan
attr source  bitErrorRate
attr title  "Bit error rate, histogram"
bin	-INF	0
bin	-0.5	0
bin	-0.46666666666667	0
bin	-0.43333333333333	0
bin	-0.4	0
bin	-0.36666666666667	0
bin	-0.33333333333333	0
bin	-0.3	0
bin	-0.26666666666667	0
bin	-0.23333333333333	0
bin	-0.2	0
bin	-0.16666666666667	0
bin	-0.13333333333333	0
bin	-0.1	0
bin	-0.066666666666667	0
bin	-0.033333333333333	0
bin	0	0
bin	0.033333333333333	0
bin	0.066666666666667	0
bin	0.1	0
bin	0.13333333333333	0
bin	0.16666666666667	0
bin	0.2	0
bin	0.23333333333333	0
bin	0.26666666666667	0
bin	0.3	0
bin	0.33333333333333	0
bin	0.36666666666667	0
bin	0.4	0
bin	0.43333333333333	0
bin	0.46666666666667	0
bin	0.5	0
statistic scenarioPRJP1.node[31].wlan.radio 	packetErrorRate:histogram
field count 123626
field mean 0.21299171737164
field stddev 0.40007627042516
field sum 26331.314051787
field sqrsum 25395.895664739
field min 0
field max 1
attr source  packetErrorRate
attr title  "Packet error rate, histogram"
bin	-INF	0
bin	-0.5	0
bin	-0.43333333333333	0
bin	-0.36666666666667	0
bin	-0.3	0
bin	-0.23333333333333	0
bin	-0.16666666666667	0
bin	-0.1	0
bin	-0.033333333333333	93418
bin	0.033333333333333	1626
bin	0.1	752
bin	0.16666666666667	522
bin	0.23333333333333	379
bin	0.3	327
bin	0.36666666666667	293
bin	0.43333333333333	287
bin	0.5	245
bin	0.56666666666667	246
bin	0.63333333333333	245
bin	0.7	250
bin	0.76666666666667	274
bin	0.83333333333333	323
bin	0.9	482
bin	0.96666666666667	23957
bin	1.0333333333333	0
bin	1.1	0
bin	1.1666666666667	0
bin	1.2333333333333	0
bin	1.3	0
bin	1.3666666666667	0
bin	1.4333333333333	0
bin	1.5	0
statistic scenarioPRJP1.node[31].wlan.radio 	minSNIR:histogram
field count 123626
field mean 1985.6320029644
field stddev 14935.996275146
field sum 245475741.99848
field sqrsum 28066182101655
field min 0.00016830859960164
field max 753239.71923443
attr source  minSNIR
attr title  "Min SNIR, histogram"
bin	-INF	0
bin	-152.47471074182	0
bin	-132.14057992569	0
bin	-111.80644910956	0
bin	-91.472318293436	0
bin	-71.138187477308	0
bin	-50.80405666118	0
bin	-30.469925845052	0
bin	-10.135795028924	53735
bin	10.198335787204	19949
bin	30.532466603332	6189
bin	50.86659741946	3517
bin	71.200728235588	2462
bin	91.534859051716	1948
bin	111.86898986784	1645
bin	132.20312068397	1480
bin	152.5372515001	1204
bin	172.87138231623	1080
bin	193.20551313236	896
bin	213.53964394848	852
bin	233.87377476461	687
bin	254.20790558074	656
bin	274.54203639687	597
bin	294.876167213	483
bin	315.21029802912	497
bin	335.54442884525	410
bin	355.87855966138	363
bin	376.21269047751	336
bin	396.54682129364	331
bin	416.88095210977	295
bin	437.21508292589	241
bin	457.54921374202	23773
scalar scenarioPRJP1.node[31].lo0.lo 	droppedPkBitError:count 	0
attr interpolationmode  none
attr source  dropPkBitError
attr title  "packets dropped/bit error, count"
scalar scenarioPRJP1.node[31].lo0.lo 	droppedPkBitError:sum(packetBytes) 	0
attr interpolationmode  none
attr source  dropPkBitError
attr title  "packets dropped/bit error, sum(packetBytes)"
scalar scenarioPRJP1.node[31].lo0.lo 	rcvdPkFromHL:count 	48
attr interpolationmode  none
attr source  packetReceivedFromUpper
attr title  "packets received from higher layer, count"
scalar scenarioPRJP1.node[31].lo0.lo 	rcvdPkFromHL:sum(packetBytes) 	24960
attr interpolationmode  none
attr source  packetReceivedFromUpper
attr title  "packets received from higher layer, sum(packetBytes)"
scalar scenarioPRJP1.node[31].lo0.lo 	passedUpPk:count 	48
attr interpolationmode  none
attr source  packetSentToUpper
attr title  "packets passed to higher layer, count"
scalar scenarioPRJP1.node[31].lo0.lo 	passedUpPk:sum(packetBytes) 	24960
attr interpolationmode  none
attr source  packetSentToUpper
attr title  "packets passed to higher layer, sum(packetBytes)"
scalar scenarioPRJP1.node[93].app 	"Total sent" 	718
scalar scenarioPRJP1.node[93].app 	"Total received" 	52
scalar scenarioPRJP1.node[93].app 	"Total deleted" 	1
scalar scenarioPRJP1.node[93].app 	dropPk:count 	1
attr interpolationmode  none
attr source  dropPk
attr title  "packets dropped, count"
scalar scenarioPRJP1.node[93].app 	dropPk:sum(packetBytes) 	512
attr interpolationmode  none
attr source  dropPk
attr title  "packets dropped, sum(packetBytes)"
scalar scenarioPRJP1.node[93].app 	outOfOrderPk:count 	11
attr interpolationmode  none
attr source  outOfOrderPk
attr title  "packets received out of order, count"
scalar scenarioPRJP1.node[93].app 	outOfOrderPk:sum(packetBytes) 	5632
attr interpolationmode  none
attr source  outOfOrderPk
attr title  "packets received out of order, sum(packetBytes)"
scalar scenarioPRJP1.node[93].app 	rcvdPk:count 	52
attr interpolationmode  none
attr source  rcvdPk
attr title  "packets received, count"
scalar scenarioPRJP1.node[93].app 	rcvdPk:sum(packetBytes) 	26624
attr interpolationmode  none
attr source  rcvdPk
attr title  "packets received, sum(packetBytes)"
statistic scenarioPRJP1.node[93].app 	endToEndDelay:histogram
field count 52
field mean 1.5957720748678
field stddev 3.9879880549178
field sum 82.980147893124
field sqrsum 943.52388781077
field min 0.001029011007
field max 19.064734501875
attr interpolationmode  none
attr source  messageAge(rcvdPk)
attr title  "delay, histogram"
attr unit  s
bin	-INF	0
bin	-9.530823734427	0
bin	-8.2599100350358	0
bin	-6.9889963356446	0
bin	-5.7180826362534	0
bin	-4.4471689368622	0
bin	-3.176255237471	0
bin	-1.9053415380798	0
bin	-0.6344278386886	35
bin	0.6364858607026	9
bin	1.9073995600938	3
bin	3.178313259485	1
bin	4.4492269588762	0
bin	5.7201406582674	0
bin	6.9910543576586	0
bin	8.2619680570498	0
bin	9.532881756441	1
bin	10.803795455832	0
bin	12.074709155223	1
bin	13.345622854615	0
bin	14.616536554006	0
bin	15.887450253397	1
bin	17.158363952788	0
bin	18.429277652179	1
bin	19.700191351571	0
bin	20.971105050962	0
bin	22.242018750353	0
bin	23.512932449744	0
bin	24.783846149135	0
bin	26.054759848527	0
bin	27.325673547918	0
bin	28.596587247309	0
scalar scenarioPRJP1.node[93].app 	sentPk:count 	718
attr interpolationmode  none
attr source  sentPk
attr title  "packets sent, count"
scalar scenarioPRJP1.node[93].app 	sentPk:sum(packetBytes) 	367616
attr interpolationmode  none
attr source  sentPk
attr title  "packets sent, sum(packetBytes)"
scalar scenarioPRJP1.node[93].udp 	droppedPkBadChecksum:count 	0
attr interpolationmode  none
attr title  "packets dropped (checksum error), count"
scalar scenarioPRJP1.node[93].udp 	droppedPkWrongPort:count 	0
attr interpolationmode  none
attr title  "packets dropped (wrong port), count"
scalar scenarioPRJP1.node[93].udp 	passedUpPk:count 	64
attr interpolationmode  none
attr title  "packets passed up, count"
scalar scenarioPRJP1.node[93].udp 	rcvdPk:count 	64
attr interpolationmode  none
attr source  rcvdPk
attr title  "packets received, count"
scalar scenarioPRJP1.node[93].udp 	rcvdPk:sum(packetBytes) 	33280
attr interpolationmode  none
attr source  rcvdPk
attr title  "packets received, sum(packetBytes)"
scalar scenarioPRJP1.node[93].udp 	sentPk:count 	718
attr interpolationmode  none
attr source  sentPk
attr title  "packets sent, count"
scalar scenarioPRJP1.node[93].udp 	sentPk:sum(packetBytes) 	373360
attr interpolationmode  none
attr source  sentPk
attr title  "packets sent, sum(packetBytes)"
scalar scenarioPRJP1.node[93].networkLayer.arp 	failedARPResolution:count 	8
attr title  "ARP failed resolutions, count"
scalar scenarioPRJP1.node[93].networkLayer.arp 	completedARPResolution:count 	377
attr title  "ARP completed resolutions, count"
scalar scenarioPRJP1.node[93].networkLayer.arp 	initiatedARPResolution:count 	38
attr title  "ARP initiated resolutions, count"
scalar scenarioPRJP1.node[93].networkLayer.arp 	sentReply:count 	26
attr title  "ARP replies sent, count"
scalar scenarioPRJP1.node[93].networkLayer.arp 	sentReq:count 	70
attr title  "ARP request sent, count"
scalar scenarioPRJP1.node[93].mobility 	startTime 	9.8
scalar scenarioPRJP1.node[93].mobility 	totalTime 	272.9
scalar scenarioPRJP1.node[93].mobility 	stopTime 	282.8
scalar scenarioPRJP1.node[93].mobility 	minSpeed 	2.4760081575279e-13
scalar scenarioPRJP1.node[93].mobility 	maxSpeed 	18.537990132405
scalar scenarioPRJP1.node[93].mobility 	totalDistance 	2204.9247582956
scalar scenarioPRJP1.node[93].mobility 	totalCO2Emission 	722.92727809187
scalar scenarioPRJP1.node[93].wlan.mgmt 	dataQueueLen:max 	97
attr interpolationmode  sample-hold
attr title  "data queue length, max"
scalar scenarioPRJP1.node[93].wlan.mgmt 	dataQueueLen:timeavg 	1.1481911815037
attr interpolationmode  sample-hold
attr title  "data queue length, timeavg"
scalar scenarioPRJP1.node[93].wlan.mgmt 	dropPkByQueue:count 	0
attr interpolationmode  none
attr source  dropPkByQueue
attr title  "packets dropped by queue, count"
scalar scenarioPRJP1.node[93].wlan.mgmt 	dropPkByQueue:sum(packetBytes) 	0
attr interpolationmode  none
attr source  dropPkByQueue
attr title  "packets dropped by queue, sum(packetBytes)"
scalar scenarioPRJP1.node[93].wlan.mac 	"number of received packets" 	4108
scalar scenarioPRJP1.node[93].wlan.mac 	"number of collisions" 	40171
scalar scenarioPRJP1.node[93].wlan.mac 	"number of internal collisions" 	0
scalar scenarioPRJP1.node[93].wlan.mac 	"number of retry for AC 0" 	8256
scalar scenarioPRJP1.node[93].wlan.mac 	"number of retry for AC 1" 	0
scalar scenarioPRJP1.node[93].wlan.mac 	"number of retry for AC 2" 	0
scalar scenarioPRJP1.node[93].wlan.mac 	"number of retry for AC 3" 	0
scalar scenarioPRJP1.node[93].wlan.mac 	"sent and received bits" 	10142112
scalar scenarioPRJP1.node[93].wlan.mac 	"sent packet within AC 0" 	2537
scalar scenarioPRJP1.node[93].wlan.mac 	"sent packet within AC 1" 	0
scalar scenarioPRJP1.node[93].wlan.mac 	"sent packet within AC 2" 	0
scalar scenarioPRJP1.node[93].wlan.mac 	"sent packet within AC 3" 	0
scalar scenarioPRJP1.node[93].wlan.mac 	"sent in TXOP " 	0
scalar scenarioPRJP1.node[93].wlan.mac 	"sentWithoutRetry AC 0" 	2249
scalar scenarioPRJP1.node[93].wlan.mac 	"sentWithoutRetry AC 1" 	0
scalar scenarioPRJP1.node[93].wlan.mac 	"sentWithoutRetry AC 2" 	0
scalar scenarioPRJP1.node[93].wlan.mac 	"sentWithoutRetry AC 3" 	0
scalar scenarioPRJP1.node[93].wlan.mac 	"numGivenUp AC 0" 	1282
scalar scenarioPRJP1.node[93].wlan.mac 	"numGivenUp AC 1" 	0
scalar scenarioPRJP1.node[93].wlan.mac 	"numGivenUp AC 2" 	0
scalar scenarioPRJP1.node[93].wlan.mac 	"numGivenUp AC 3" 	0
scalar scenarioPRJP1.node[93].wlan.mac 	"numDropped AC 0" 	407
scalar scenarioPRJP1.node[93].wlan.mac 	"numDropped AC 1" 	0
scalar scenarioPRJP1.node[93].wlan.mac 	"numDropped AC 2" 	0
scalar scenarioPRJP1.node[93].wlan.mac 	"numDropped AC 3" 	0
scalar scenarioPRJP1.node[93].wlan.mac 	rcvdPkFromLL:count 	168403
attr interpolationmode  none
attr source  packetReceivedFromLower
attr title  "packets received from lower layer, count"
scalar scenarioPRJP1.node[93].wlan.mac 	rcvdPkFromLL:sum(packetBytes) 	35492204
attr interpolationmode  none
attr source  packetReceivedFromLower
attr title  "packets received from lower layer, sum(packetBytes)"
scalar scenarioPRJP1.node[93].wlan.mac 	sentDownPk:count 	23966
attr interpolationmode  none
attr source  packetSentToLower
attr title  "packets sent to lower layer, count"
scalar scenarioPRJP1.node[93].wlan.mac 	sentDownPk:sum(packetBytes) 	4384580
attr interpolationmode  none
attr source  packetSentToLower
attr title  "packets sent to lower layer, sum(packetBytes)"
scalar scenarioPRJP1.node[93].wlan.mac 	rcvdPkFromHL:count 	12009
attr interpolationmode  none
attr source  packetReceivedFromUpper
attr title  "packets received from higher layer, count"
scalar scenarioPRJP1.node[93].wlan.mac 	rcvdPkFromHL:sum(packetBytes) 	1750928
attr interpolationmode  none
attr source  packetReceivedFromUpper
attr title  "packets received from higher layer, sum(packetBytes)"
scalar scenarioPRJP1.node[93].wlan.mac 	passedUpPk:count 	38088
attr interpolationmode  none
attr source  packetSentToUpper
attr title  "packets passed to higher layer, count"
scalar scenarioPRJP1.node[93].wlan.mac 	passedUpPk:sum(packetBytes) 	3240544
attr interpolationmode  none
attr source  packetSentToUpper
attr title  "packets passed to higher layer, sum(packetBytes)"
statistic scenarioPRJP1.node[93].wlan.radio 	radioChannel:histogram
field count 1
field mean 3
field stddev nan
field sum 3
field sqrsum 9
field min 3
field max 3
attr interpolationmode  sample-hold
attr source  radioChannelChanged
attr title  "Radio channel, histogram"
bin	-INF	0
bin	2	0
bin	3	1
bin	4	0
scalar scenarioPRJP1.node[93].wlan.radio 	transmissionState:count 	95864
attr interpolationmode  sample-hold
attr source  transmissionStateChanged
attr title  "Radio transmission state, count"
scalar scenarioPRJP1.node[93].wlan.radio 	receptionState:count 	396513
attr interpolationmode  sample-hold
attr source  receptionStateChanged
attr title  "Radio reception state, count"
scalar scenarioPRJP1.node[93].wlan.radio 	radioMode:count 	47934
attr interpolationmode  sample-hold
attr source  radioModeChanged
attr title  "Radio mode, count"
statistic scenarioPRJP1.node[93].wlan.radio 	symbolErrorRate:histogram
field count 0
field mean nan
field stddev nan
[...]
attr interpolationmode  none
attr source  packetSentToUpper
attr title  "packets passed to higher layer, sum(packetBytes)"
statistic scenarioPRJP1.node[79].wlan.radio 	radioChannel:histogram
field count 1
field mean 3
field stddev nan
field sum 3
field sqrsum 9
field min 3
field max 3
attr interpolationmode  sample-hold
attr source  radioChannelChanged
attr title  "Radio channel, histogram"
bin	-INF	0
bin	2	0
bin	3	1
bin	4	0
scalar scenarioPRJP1.node[79].wlan.radio 	transmissionState:count 	217520
attr interpolationmode  sample-hold
attr source  transmissionStateChanged
attr title  "Radio transmission state, count"
scalar scenarioPRJP1.node[79].wlan.radio 	receptionState:count 	674901
attr interpolationmode  sample-hold
attr source  receptionStateChanged
attr title  "Radio reception state, count"
scalar scenarioPRJP1.node[79].wlan.radio 	radioMode:count 	108762
attr interpolationmode  sample-hold
attr source  radioModeChanged
attr title  "Radio mode, count"
statistic scenarioPRJP1.node[79].wlan.radio 	symbolErrorRate:histogram
field count 0
field mean nan
field stddev nan
field sum 0
field sqrsum 0
field min nan
field max nan
attr source  symbolErrorRate
attr title  "Symbol error rate, histogram"
bin	-INF	0
bin	-0.5	0
bin	-0.46666666666667	0
bin	-0.43333333333333	0
bin	-0.4	0
bin	-0.36666666666667	0
bin	-0.33333333333333	0
bin	-0.3	0
bin	-0.26666666666667	0
bin	-0.23333333333333	0
bin	-0.2	0
bin	-0.16666666666667	0
bin	-0.13333333333333	0
bin	-0.1	0
bin	-0.066666666666667	0
bin	-0.033333333333333	0
bin	0	0
bin	0.033333333333333	0
bin	0.066666666666667	0
bin	0.1	0
bin	0.13333333333333	0
bin	0.16666666666667	0
bin	0.2	0
bin	0.23333333333333	0
bin	0.26666666666667	0
bin	0.3	0
bin	0.33333333333333	0
bin	0.36666666666667	0
bin	0.4	0
bin	0.43333333333333	0
bin	0.46666666666667	0
bin	0.5	0
statistic scenarioPRJP1.node[79].wlan.radio 	bitErrorRate:histogram
field count 0
field mean nan
field stddev nan
field sum 0
field sqrsum 0
field min nan
field max nan
attr source  bitErrorRate
attr title  "Bit error rate, histogram"
bin	-INF	0
bin	-0.5	0
bin	-0.46666666666667	0
bin	-0.43333333333333	0
bin	-0.4	0
bin	-0.36666666666667	0
bin	-0.33333333333333	0
bin	-0.3	0
bin	-0.26666666666667	0
bin	-0.23333333333333	0
bin	-0.2	0
bin	-0.16666666666667	0
bin	-0.13333333333333	0
bin	-0.1	0
bin	-0.066666666666667	0
bin	-0.033333333333333	0
bin	0	0
bin	0.033333333333333	0
bin	0.066666666666667	0
bin	0.1	0
bin	0.13333333333333	0
bin	0.16666666666667	0
bin	0.2	0
bin	0.23333333333333	0
bin	0.26666666666667	0
bin	0.3	0
bin	0.33333333333333	0
bin	0.36666666666667	0
bin	0.4	0
bin	0.43333333333333	0
bin	0.46666666666667	0
bin	0.5	0
statistic scenarioPRJP1.node[79].wlan.radio 	packetErrorRate:histogram
field count 274555
field mean 0.2085921444117
field stddev 0.3973345998389
field sum 57270.016208954
field sqrsum 55291.229000766
field min 0
field max 1
attr source  packetErrorRate
attr title  "Packet error rate, histogram"
bin	-INF	0
bin	-0.30111568500145	0
bin	-0.26096692700126	0
bin	-0.22081816900106	0
bin	-0.18066941100087	0
bin	-0.14052065300068	0
bin	-0.10037189500048	0
bin	-0.06022313700029	0
bin	-0.020074379000097	207656
bin	0.020074379000097	3242
bin	0.06022313700029	1608
bin	0.10037189500048	1020
bin	0.14052065300068	796
bin	0.18066941100087	613
bin	0.22081816900106	612
bin	0.26096692700126	489
bin	0.30111568500145	442
bin	0.34126444300164	376
bin	0.38141320100184	395
bin	0.42156195900203	367
bin	0.46171071700222	369
bin	0.50185947500242	315
bin	0.54200823300261	305
bin	0.58215699100281	306
bin	0.622305749003	266
bin	0.66245450700319	360
bin	0.70260326500339	339
bin	0.74275202300358	317
bin	0.78290078100377	334
bin	0.82304953900397	342
bin	0.86319829700416	408
bin	0.90334705500435	53278
statistic scenarioPRJP1.node[79].wlan.radio 	minSNIR:histogram
field count 274555
field mean 3230.9733316659
field stddev 36920.256601819
field sum 887079883.07553
field sqrsum 3.771121570349e+14
field min 0.00014407275611692
field max 789297.23984474
attr source  minSNIR
attr title  "Min SNIR, histogram"
bin	-INF	0
bin	-199.34887816673	0
bin	-172.53261042775	0
bin	-145.71634268877	0
bin	-118.90007494979	0
bin	-92.083807210808	0
bin	-65.267539471827	0
bin	-38.451271732846	0
bin	-11.635003993865	131491
bin	15.181263745116	36398
bin	41.997531484097	14573
bin	68.813799223078	9328
bin	95.630066962059	6967
bin	122.44633470104	6317
bin	149.26260244002	5699
bin	176.078870179	4321
bin	202.89513791798	3446
bin	229.71140565696	2822
bin	256.52767339595	2612
bin	283.34394113493	2135
bin	310.16020887391	1896
bin	336.97647661289	1621
bin	363.79274435187	1296
bin	390.60901209085	1180
bin	417.42527982983	1022
bin	444.24154756881	894
bin	471.05781530779	861
bin	497.87408304678	824
bin	524.69035078576	782
bin	551.50661852474	802
bin	578.32288626372	686
bin	605.1391540027	36582
scalar scenarioPRJP1.node[79].lo0.lo 	droppedPkBitError:count 	0
attr interpolationmode  none
attr source  dropPkBitError
attr title  "packets dropped/bit error, count"
scalar scenarioPRJP1.node[79].lo0.lo 	droppedPkBitError:sum(packetBytes) 	0
attr interpolationmode  none
attr source  dropPkBitError
attr title  "packets dropped/bit error, sum(packetBytes)"
scalar scenarioPRJP1.node[79].lo0.lo 	rcvdPkFromHL:count 	145
attr interpolationmode  none
attr source  packetReceivedFromUpper
attr title  "packets received from higher layer, count"
scalar scenarioPRJP1.node[79].lo0.lo 	rcvdPkFromHL:sum(packetBytes) 	75400
attr interpolationmode  none
attr source  packetReceivedFromUpper
attr title  "packets received from higher layer, sum(packetBytes)"
scalar scenarioPRJP1.node[79].lo0.lo 	passedUpPk:count 	145
attr interpolationmode  none
attr source  packetSentToUpper
attr title  "packets passed to higher layer, count"
scalar scenarioPRJP1.node[79].lo0.lo 	passedUpPk:sum(packetBytes) 	75400
attr interpolationmode  none
attr source  packetSentToUpper
attr title  "packets passed to higher layer, sum(packetBytes)"
scalar scenarioPRJP1.node[98].app 	"Total sent" 	2609
scalar scenarioPRJP1.node[98].app 	"Total received" 	114
scalar scenarioPRJP1.node[98].app 	"Total deleted" 	5
scalar scenarioPRJP1.node[98].app 	dropPk:count 	5
attr interpolationmode  none
attr source  dropPk
attr title  "packets dropped, count"
scalar scenarioPRJP1.node[98].app 	dropPk:sum(packetBytes) 	2560
attr interpolationmode  none
attr source  dropPk
attr title  "packets dropped, sum(packetBytes)"
scalar scenarioPRJP1.node[98].app 	outOfOrderPk:count 	2
attr interpolationmode  none
attr source  outOfOrderPk
attr title  "packets received out of order, count"
scalar scenarioPRJP1.node[98].app 	outOfOrderPk:sum(packetBytes) 	1024
attr interpolationmode  none
attr source  outOfOrderPk
attr title  "packets received out of order, sum(packetBytes)"
scalar scenarioPRJP1.node[98].app 	rcvdPk:count 	114
attr interpolationmode  none
attr source  rcvdPk
attr title  "packets received, count"
scalar scenarioPRJP1.node[98].app 	rcvdPk:sum(packetBytes) 	58368
attr interpolationmode  none
attr source  rcvdPk
attr title  "packets received, sum(packetBytes)"
statistic scenarioPRJP1.node[98].app 	endToEndDelay:histogram
field count 114
field mean 0.74581521866559
field stddev 2.1151921060079
field sum 85.022934927877
field sqrsum 568.97765272576
field min 0.000964052812
field max 19.903326860374
attr interpolationmode  none
attr source  messageAge(rcvdPk)
attr title  "delay, histogram"
attr unit  s
bin	-INF	0
bin	-9.950217350969	0
bin	-8.6233931637982	0
bin	-7.2965689766274	0
bin	-5.9697447894566	0
bin	-4.6429206022858	0
bin	-3.316096415115	0
bin	-1.9892722279442	0
bin	-0.6624480407734	80
bin	0.6643761463974	25
bin	1.9912003335682	5
bin	3.318024520739	1
bin	4.6448487079098	1
bin	5.9716728950806	0
bin	7.2984970822514	1
bin	8.6253212694222	0
bin	9.952145456593	0
bin	11.278969643764	0
bin	12.605793830935	0
bin	13.932618018105	0
bin	15.259442205276	0
bin	16.586266392447	0
bin	17.913090579618	0
bin	19.239914766789	1
bin	20.566738953959	0
bin	21.89356314113	0
bin	23.220387328301	0
bin	24.547211515472	0
bin	25.874035702643	0
bin	27.200859889813	0
bin	28.527684076984	0
bin	29.854508264155	0
scalar scenarioPRJP1.node[98].app 	sentPk:count 	2609
attr interpolationmode  none
attr source  sentPk
attr title  "packets sent, count"
scalar scenarioPRJP1.node[98].app 	sentPk:sum(packetBytes) 	1335808
attr interpolationmode  none
attr source  sentPk
attr title  "packets sent, sum(packetBytes)"
scalar scenarioPRJP1.node[98].udp 	droppedPkBadChecksum:count 	0
attr interpolationmode  none
attr title  "packets dropped (checksum error), count"
scalar scenarioPRJP1.node[98].udp 	droppedPkWrongPort:count 	0
attr interpolationmode  none
attr title  "packets dropped (wrong port), count"
scalar scenarioPRJP1.node[98].udp 	passedUpPk:count 	121
attr interpolationmode  none
attr title  "packets passed up, count"
scalar scenarioPRJP1.node[98].udp 	rcvdPk:count 	121
attr interpolationmode  none
attr source  rcvdPk
attr title  "packets received, count"
scalar scenarioPRJP1.node[98].udp 	rcvdPk:sum(packetBytes) 	62920
attr interpolationmode  none
attr source  rcvdPk
attr title  "packets received, sum(packetBytes)"
scalar scenarioPRJP1.node[98].udp 	sentPk:count 	2609
attr interpolationmode  none
attr source  sentPk
attr title  "packets sent, count"
scalar scenarioPRJP1.node[98].udp 	sentPk:sum(packetBytes) 	1356680
attr interpolationmode  none
attr source  sentPk
attr title  "packets sent, sum(packetBytes)"
scalar scenarioPRJP1.node[98].networkLayer.arp 	failedARPResolution:count 	71
attr title  "ARP failed resolutions, count"
scalar scenarioPRJP1.node[98].networkLayer.arp 	completedARPResolution:count 	1878
attr title  "ARP completed resolutions, count"
scalar scenarioPRJP1.node[98].networkLayer.arp 	initiatedARPResolution:count 	146
attr title  "ARP initiated resolutions, count"
scalar scenarioPRJP1.node[98].networkLayer.arp 	sentReply:count 	67
attr title  "ARP replies sent, count"
scalar scenarioPRJP1.node[98].networkLayer.arp 	sentReq:count 	323
attr title  "ARP request sent, count"
scalar scenarioPRJP1.node[98].mobility 	startTime 	9.9
scalar scenarioPRJP1.node[98].mobility 	totalTime 	940.1
scalar scenarioPRJP1.node[98].mobility 	stopTime 	950
scalar scenarioPRJP1.node[98].mobility 	minSpeed 	2.4755060850502e-13
scalar scenarioPRJP1.node[98].mobility 	maxSpeed 	16.725522880504
scalar scenarioPRJP1.node[98].mobility 	totalDistance 	8534.0140833076
scalar scenarioPRJP1.node[98].mobility 	totalCO2Emission 	2308.6507054307
scalar scenarioPRJP1.node[98].wlan.mgmt 	dataQueueLen:max 	11
attr interpolationmode  sample-hold
attr title  "data queue length, max"
scalar scenarioPRJP1.node[98].wlan.mgmt 	dataQueueLen:timeavg 	0.00015394120296564
attr interpolationmode  sample-hold
attr title  "data queue length, timeavg"
scalar scenarioPRJP1.node[98].wlan.mgmt 	dropPkByQueue:count 	0
attr interpolationmode  none
attr source  dropPkByQueue
attr title  "packets dropped by queue, count"
scalar scenarioPRJP1.node[98].wlan.mgmt 	dropPkByQueue:sum(packetBytes) 	0
attr interpolationmode  none
attr source  dropPkByQueue
attr title  "packets dropped by queue, sum(packetBytes)"
scalar scenarioPRJP1.node[98].wlan.mac 	"number of received packets" 	10306
scalar scenarioPRJP1.node[98].wlan.mac 	"number of collisions" 	74875
scalar scenarioPRJP1.node[98].wlan.mac 	"number of internal collisions" 	0
scalar scenarioPRJP1.node[98].wlan.mac 	"number of retry for AC 0" 	27102
scalar scenarioPRJP1.node[98].wlan.mac 	"number of retry for AC 1" 	0
scalar scenarioPRJP1.node[98].wlan.mac 	"number of retry for AC 2" 	0
scalar scenarioPRJP1.node[98].wlan.mac 	"number of retry for AC 3" 	0
scalar scenarioPRJP1.node[98].wlan.mac 	"sent and received bits" 	17704864
scalar scenarioPRJP1.node[98].wlan.mac 	"sent packet within AC 0" 	3480
scalar scenarioPRJP1.node[98].wlan.mac 	"sent packet within AC 1" 	0
scalar scenarioPRJP1.node[98].wlan.mac 	"sent packet within AC 2" 	0
scalar scenarioPRJP1.node[98].wlan.mac 	"sent packet within AC 3" 	0
scalar scenarioPRJP1.node[98].wlan.mac 	"sent in TXOP " 	0
scalar scenarioPRJP1.node[98].wlan.mac 	"sentWithoutRetry AC 0" 	2975
scalar scenarioPRJP1.node[98].wlan.mac 	"sentWithoutRetry AC 1" 	0
scalar scenarioPRJP1.node[98].wlan.mac 	"sentWithoutRetry AC 2" 	0
scalar scenarioPRJP1.node[98].wlan.mac 	"sentWithoutRetry AC 3" 	0
scalar scenarioPRJP1.node[98].wlan.mac 	"numGivenUp AC 0" 	4316
scalar scenarioPRJP1.node[98].wlan.mac 	"numGivenUp AC 1" 	0
scalar scenarioPRJP1.node[98].wlan.mac 	"numGivenUp AC 2" 	0
scalar scenarioPRJP1.node[98].wlan.mac 	"numGivenUp AC 3" 	0
scalar scenarioPRJP1.node[98].wlan.mac 	"numDropped AC 0" 	11
scalar scenarioPRJP1.node[98].wlan.mac 	"numDropped AC 1" 	0
scalar scenarioPRJP1.node[98].wlan.mac 	"numDropped AC 2" 	0
scalar scenarioPRJP1.node[98].wlan.mac 	"numDropped AC 3" 	0
scalar scenarioPRJP1.node[98].wlan.mac 	rcvdPkFromLL:count 	317337
attr interpolationmode  none
attr source  packetReceivedFromLower
attr title  "packets received from lower layer, count"
scalar scenarioPRJP1.node[98].wlan.mac 	rcvdPkFromLL:sum(packetBytes) 	83406350
attr interpolationmode  none
attr source  packetReceivedFromLower
attr title  "packets received from lower layer, sum(packetBytes)"
scalar scenarioPRJP1.node[98].wlan.mac 	sentDownPk:count 	58947
attr interpolationmode  none
attr source  packetSentToLower
attr title  "packets sent to lower layer, count"
scalar scenarioPRJP1.node[98].wlan.mac 	sentDownPk:sum(packetBytes) 	14641808
attr interpolationmode  none
attr source  packetSentToLower
attr title  "packets sent to lower layer, sum(packetBytes)"
scalar scenarioPRJP1.node[98].wlan.mac 	rcvdPkFromHL:count 	21550
attr interpolationmode  none
attr source  packetReceivedFromUpper
attr title  "packets received from higher layer, count"
scalar scenarioPRJP1.node[98].wlan.mac 	rcvdPkFromHL:sum(packetBytes) 	3886440
attr interpolationmode  none
attr source  packetReceivedFromUpper
attr title  "packets received from higher layer, sum(packetBytes)"
scalar scenarioPRJP1.node[98].wlan.mac 	passedUpPk:count 	54779
attr interpolationmode  none
attr source  packetSentToUpper
attr title  "packets passed to higher layer, count"
scalar scenarioPRJP1.node[98].wlan.mac 	passedUpPk:sum(packetBytes) 	5143016
attr interpolationmode  none
attr source  packetSentToUpper
attr title  "packets passed to higher layer, sum(packetBytes)"
statistic scenarioPRJP1.node[98].wlan.radio 	radioChannel:histogram
field count 1
field mean 3
field stddev nan
field sum 3
field sqrsum 9
field min 3
field max 3
attr interpolationmode  sample-hold
attr source  radioChannelChanged
attr title  "Radio channel, histogram"
bin	-INF	0
bin	2	0
bin	3	1
bin	4	0
scalar scenarioPRJP1.node[98].wlan.radio 	transmissionState:count 	235788
attr interpolationmode  sample-hold
attr source  transmissionStateChanged
attr title  "Radio transmission state, count"
scalar scenarioPRJP1.node[98].wlan.radio 	receptionState:count 	777110
attr interpolationmode  sample-hold
attr source  receptionStateChanged
attr title  "Radio reception state, count"
scalar scenarioPRJP1.node[98].wlan.radio 	radioMode:count 	117896
attr interpolationmode  sample-hold
attr source  radioModeChanged
attr title  "Radio mode, count"
statistic scenarioPRJP1.node[98].wlan.radio 	symbolErrorRate:histogram
field count 0
field mean nan
field stddev nan
field sum 0
field sqrsum 0
field min nan
field max nan
attr source  symbolErrorRate
attr title  "Symbol error rate, histogram"
bin	-INF	0
bin	-0.5	0
bin	-0.46666666666667	0
bin	-0.43333333333333	0
bin	-0.4	0
bin	-0.36666666666667	0
bin	-0.33333333333333	0
bin	-0.3	0
bin	-0.26666666666667	0
bin	-0.23333333333333	0
bin	-0.2	0
bin	-0.16666666666667	0
bin	-0.13333333333333	0
bin	-0.1	0
bin	-0.066666666666667	0
bin	-0.033333333333333	0
bin	0	0
bin	0.033333333333333	0
bin	0.066666666666667	0
bin	0.1	0
bin	0.13333333333333	0
bin	0.16666666666667	0
bin	0.2	0
bin	0.23333333333333	0
bin	0.26666666666667	0
bin	0.3	0
bin	0.33333333333333	0
bin	0.36666666666667	0
bin	0.4	0
bin	0.43333333333333	0
bin	0.46666666666667	0
bin	0.5	0
statistic scenarioPRJP1.node[98].wlan.radio 	bitErrorRate:histogram
field count 0
field mean nan
field stddev nan
field sum 0
field sqrsum 0
field min nan
field max nan
attr source  bitErrorRate
attr title  "Bit error rate, histogram"
bin	-INF	0
bin	-0.5	0
bin	-0.46666666666667	0
bin	-0.43333333333333	0
bin	-0.4	0
bin	-0.36666666666667	0
bin	-0.33333333333333	0
bin	-0.3	0
bin	-0.26666666666667	0
bin	-0.23333333333333	0
bin	-0.2	0
bin	-0.16666666666667	0
bin	-0.13333333333333	0
bin	-0.1	0
bin	-0.066666666666667	0
bin	-0.033333333333333	0
bin	0	0
bin	0.033333333333333	0
bin	0.066666666666667	0
bin	0.1	0
bin	0.13333333333333	0
bin	0.16666666666667	0
bin	0.2	0
bin	0.23333333333333	0
bin	0.26666666666667	0
bin	0.3	0
bin	0.33333333333333	0
bin	0.36666666666667	0
bin	0.4	0
bin	0.43333333333333	0
bin	0.46666666666667	0
bin	0.5	0
statistic scenarioPRJP1.node[98].wlan.radio 	packetErrorRate:histogram
field count 317337
field mean 0.21883287093505
field stddev 0.40469931484833
field sum 69443.766763915
field sqrsum 67170.356179469
field min 0
field max 1
attr source  packetErrorRate
attr title  "Packet error rate, histogram"
bin	-INF	0
bin	-0.5	0
bin	-0.43333333333333	0
bin	-0.36666666666667	0
bin	-0.3	0
bin	-0.23333333333333	0
bin	-0.16666666666667	0
bin	-0.1	0
bin	-0.033333333333333	238532
bin	0.033333333333333	3816
bin	0.1	1909
bin	0.16666666666667	1248
bin	0.23333333333333	969
bin	0.3	777
bin	0.36666666666667	717
bin	0.43333333333333	662
bin	0.5	608
bin	0.56666666666667	595
bin	0.63333333333333	602
bin	0.7	618
bin	0.76666666666667	623
bin	0.83333333333333	815
bin	0.9	1166
bin	0.96666666666667	63680
bin	1.0333333333333	0
bin	1.1	0
bin	1.1666666666667	0
bin	1.2333333333333	0
bin	1.3	0
bin	1.3666666666667	0
bin	1.4333333333333	0
bin	1.5	0
statistic scenarioPRJP1.node[98].wlan.radio 	minSNIR:histogram
field count 317337
field mean 2818.6391544055
field stddev 30000.230126442
field sum 894458493.34159
field sqrsum 2.881279373924e+14
field min 0.00016746442123189
field max 1029092.7940188
attr source  minSNIR
attr title  "Min SNIR, histogram"
bin	-INF	0
bin	-99.151067976297	0
bin	-85.798611528188	0
bin	-72.44615508008	0
bin	-59.093698631971	0
bin	-45.741242183863	0
bin	-32.388785735754	0
bin	-19.036329287645	0
bin	-5.6838728395367	121610
bin	7.6685836085719	49085
bin	21.021040056681	19263
bin	34.373496504789	11527
bin	47.725952952898	7752
bin	61.078409401006	6405
bin	74.430865849115	5207
bin	87.783322297224	4016
bin	101.13577874533	3384
bin	114.48823519344	3148
bin	127.84069164155	3798
bin	141.19314808966	3472
bin	154.54560453777	3332
bin	167.89806098588	2990
bin	181.25051743398	2422
bin	194.60297388209	2465
bin	207.9554303302	2050
bin	221.30788677831	1880
bin	234.66034322642	1711
bin	248.01279967453	1694
bin	261.36525612264	1560
bin	274.71771257074	1360
bin	288.07016901885	1258
bin	301.42262546696	55948
scalar scenarioPRJP1.node[98].lo0.lo 	droppedPkBitError:count 	0
attr interpolationmode  none
attr source  dropPkBitError
attr title  "packets dropped/bit error, count"
scalar scenarioPRJP1.node[98].lo0.lo 	droppedPkBitError:sum(packetBytes) 	0
attr interpolationmode  none
attr source  dropPkBitError
attr title  "packets dropped/bit error, sum(packetBytes)"
scalar scenarioPRJP1.node[98].lo0.lo 	rcvdPkFromHL:count 	121
attr interpolationmode  none
attr source  packetReceivedFromUpper
attr title  "packets received from higher layer, count"
scalar scenarioPRJP1.node[98].lo0.lo 	rcvdPkFromHL:sum(packetBytes) 	62920
attr interpolationmode  none
attr source  packetReceivedFromUpper
attr title  "packets received from higher layer, sum(packetBytes)"
scalar scenarioPRJP1.node[98].lo0.lo 	passedUpPk:count 	121
attr interpolationmode  none
attr source  packetSentToUpper
attr title  "packets passed to higher layer, count"
scalar scenarioPRJP1.node[98].lo0.lo 	passedUpPk:sum(packetBytes) 	62920
attr interpolationmode  none
attr source  packetSentToUpper
attr title  "packets passed to higher layer, sum(packetBytes)"
