version 2
run DSRUU-TRG-100n-2-20150820-19:17:00-22186
attr configname DSRUU-TRG-100n
attr datetime 20150820-19:17:00
attr experiment DSRUU-TRG-100n
attr inifile omnetpp.ini
attr iterationvars ""
attr iterationvars2 $repetition=2
attr measurement ""
attr network Prj_Part1_propag.scenarioPRJP1
attr processid 22186
attr repetition 2
attr replication #2
attr resultdir results
attr runnumber 2
attr seedset 2

scalar scenarioPRJP1.radioMedium.propagation 	"Arrival computation count" 	607085127
scalar scenarioPRJP1.radioMedium 	"transmission count" 	6132173
scalar scenarioPRJP1.radioMedium 	"radio frame send count" 	607085127
scalar scenarioPRJP1.radioMedium 	"reception computation count" 	598208728
scalar scenarioPRJP1.radioMedium 	"interference computation count" 	1442060627
scalar scenarioPRJP1.radioMedium 	"reception decision computation count" 	36121373
scalar scenarioPRJP1.radioMedium 	"listening decision computation count" 	827719350
scalar scenarioPRJP1.radioMedium 	"reception cache hit" 	92.269027092715
attr unit  %
scalar scenarioPRJP1.radioMedium 	"interference cache hit" 	50
attr unit  %
scalar scenarioPRJP1.radioMedium 	"noise cache hit" 	0
attr unit  %
scalar scenarioPRJP1.radioMedium 	"snir cache hit" 	0
attr unit  %
scalar scenarioPRJP1.radioMedium 	"reception decision cache hit" 	0
attr unit  %
scalar scenarioPRJP1.node[0].app 	"Total sent" 	2611
scalar scenarioPRJP1.node[0].app 	"Total received" 	91
scalar scenarioPRJP1.node[0].app 	"Total deleted" 	3
scalar scenarioPRJP1.node[0].app 	dropPk:count 	3
attr interpolationmode  none
attr source  dropPk
attr title  "packets dropped, count"
scalar scenarioPRJP1.node[0].app 	dropPk:sum(packetBytes) 	1536
attr interpolationmode  none
attr source  dropPk
attr title  "packets dropped, sum(packetBytes)"
scalar scenarioPRJP1.node[0].app 	outOfOrderPk:count 	10
attr interpolationmode  none
attr source  outOfOrderPk
attr title  "packets received out of order, count"
scalar scenarioPRJP1.node[0].app 	outOfOrderPk:sum(packetBytes) 	5120
attr interpolationmode  none
attr source  outOfOrderPk
attr title  "packets received out of order, sum(packetBytes)"
scalar scenarioPRJP1.node[0].app 	rcvdPk:count 	91
attr interpolationmode  none
attr source  rcvdPk
attr title  "packets received, count"
scalar scenarioPRJP1.node[0].app 	rcvdPk:sum(packetBytes) 	46592
attr interpolationmode  none
attr source  rcvdPk
attr title  "packets received, sum(packetBytes)"
statistic scenarioPRJP1.node[0].app 	endToEndDelay:histogram
field count 91
field mean 1.4134005224352
field stddev 3.5205802401409
field sum 128.61944754161
field sqrsum 1297.294464805
field min 0.002006117544
field max 16.116736307703
attr interpolationmode  none
attr source  messageAge(rcvdPk)
attr title  "delay, histogram"
attr unit  s
bin	-INF	0
bin	-8.0553589775355	0
bin	-6.9810436315249	0
bin	-5.9067282855143	0
bin	-4.8324129395037	0
bin	-3.7580975934931	0
bin	-2.6837822474825	0
bin	-1.6094669014719	0
bin	-0.5351515554613	66
bin	0.5391637905493	13
bin	1.6134791365599	0
bin	2.6877944825705	1
bin	3.7621098285811	2
bin	4.8364251745917	2
bin	5.9107405206023	0
bin	6.9850558666129	0
bin	8.0593712126235	0
bin	9.1336865586341	2
bin	10.208001904645	1
bin	11.282317250655	1
bin	12.356632596666	0
bin	13.430947942677	0
bin	14.505263288687	1
bin	15.579578634698	2
bin	16.653893980708	0
bin	17.728209326719	0
bin	18.80252467273	0
bin	19.87684001874	0
bin	20.951155364751	0
bin	22.025470710761	0
bin	23.099786056772	0
bin	24.174101402783	0
scalar scenarioPRJP1.node[0].app 	sentPk:count 	2611
attr interpolationmode  none
attr source  sentPk
attr title  "packets sent, count"
scalar scenarioPRJP1.node[0].app 	sentPk:sum(packetBytes) 	1336832
attr interpolationmode  none
attr source  sentPk
attr title  "packets sent, sum(packetBytes)"
scalar scenarioPRJP1.node[0].udp 	droppedPkBadChecksum:count 	0
attr interpolationmode  none
attr title  "packets dropped (checksum error), count"
scalar scenarioPRJP1.node[0].udp 	droppedPkWrongPort:count 	0
attr interpolationmode  none
attr title  "packets dropped (wrong port), count"
scalar scenarioPRJP1.node[0].udp 	passedUpPk:count 	104
attr interpolationmode  none
attr title  "packets passed up, count"
scalar scenarioPRJP1.node[0].udp 	rcvdPk:count 	104
attr interpolationmode  none
attr source  rcvdPk
attr title  "packets received, count"
scalar scenarioPRJP1.node[0].udp 	rcvdPk:sum(packetBytes) 	54080
attr interpolationmode  none
attr source  rcvdPk
attr title  "packets received, sum(packetBytes)"
scalar scenarioPRJP1.node[0].udp 	sentPk:count 	2611
attr interpolationmode  none
attr source  sentPk
attr title  "packets sent, count"
scalar scenarioPRJP1.node[0].udp 	sentPk:sum(packetBytes) 	1357720
attr interpolationmode  none
attr source  sentPk
attr title  "packets sent, sum(packetBytes)"
scalar scenarioPRJP1.node[0].networkLayer.arp 	failedARPResolution:count 	118
attr title  "ARP failed resolutions, count"
scalar scenarioPRJP1.node[0].networkLayer.arp 	completedARPResolution:count 	2153
attr title  "ARP completed resolutions, count"
scalar scenarioPRJP1.node[0].networkLayer.arp 	initiatedARPResolution:count 	210
attr title  "ARP initiated resolutions, count"
scalar scenarioPRJP1.node[0].networkLayer.arp 	sentReply:count 	76
attr title  "ARP replies sent, count"
scalar scenarioPRJP1.node[0].networkLayer.arp 	sentReq:count 	482
attr title  "ARP request sent, count"
scalar scenarioPRJP1.node[0].mobility 	startTime 	0.1
scalar scenarioPRJP1.node[0].mobility 	totalTime 	949.9
scalar scenarioPRJP1.node[0].mobility 	stopTime 	950
scalar scenarioPRJP1.node[0].mobility 	minSpeed 	2.4755364186872e-13
scalar scenarioPRJP1.node[0].mobility 	maxSpeed 	18.826685486986
scalar scenarioPRJP1.node[0].mobility 	totalDistance 	9860.4222850716
scalar scenarioPRJP1.node[0].mobility 	totalCO2Emission 	2790.0616349293
scalar scenarioPRJP1.node[0].wlan.mgmt 	dataQueueLen:max 	14
attr interpolationmode  sample-hold
attr title  "data queue length, max"
scalar scenarioPRJP1.node[0].wlan.mgmt 	dataQueueLen:timeavg 	0.0021163323676482
attr interpolationmode  sample-hold
attr title  "data queue length, timeavg"
scalar scenarioPRJP1.node[0].wlan.mgmt 	dropPkByQueue:count 	0
attr interpolationmode  none
attr source  dropPkByQueue
attr title  "packets dropped by queue, count"
scalar scenarioPRJP1.node[0].wlan.mgmt 	dropPkByQueue:sum(packetBytes) 	0
attr interpolationmode  none
attr source  dropPkByQueue
attr title  "packets dropped by queue, sum(packetBytes)"
scalar scenarioPRJP1.node[0].wlan.mac 	"number of received packets" 	10061
scalar scenarioPRJP1.node[0].wlan.mac 	"number of collisions" 	93334
scalar scenarioPRJP1.node[0].wlan.mac 	"number of internal collisions" 	0
scalar scenarioPRJP1.node[0].wlan.mac 	"number of retry for AC 0" 	28084
scalar scenarioPRJP1.node[0].wlan.mac 	"number of retry for AC 1" 	0
scalar scenarioPRJP1.node[0].wlan.mac 	"number of retry for AC 2" 	0
scalar scenarioPRJP1.node[0].wlan.mac 	"number of retry for AC 3" 	0
scalar scenarioPRJP1.node[0].wlan.mac 	"sent and received bits" 	18291936
scalar scenarioPRJP1.node[0].wlan.mac 	"sent packet within AC 0" 	5930
scalar scenarioPRJP1.node[0].wlan.mac 	"sent packet within AC 1" 	0
scalar scenarioPRJP1.node[0].wlan.mac 	"sent packet within AC 2" 	0
scalar scenarioPRJP1.node[0].wlan.mac 	"sent packet within AC 3" 	0
scalar scenarioPRJP1.node[0].wlan.mac 	"sent in TXOP " 	0
scalar scenarioPRJP1.node[0].wlan.mac 	"sentWithoutRetry AC 0" 	5219
scalar scenarioPRJP1.node[0].wlan.mac 	"sentWithoutRetry AC 1" 	0
scalar scenarioPRJP1.node[0].wlan.mac 	"sentWithoutRetry AC 2" 	0
scalar scenarioPRJP1.node[0].wlan.mac 	"sentWithoutRetry AC 3" 	0
scalar scenarioPRJP1.node[0].wlan.mac 	"numGivenUp AC 0" 	4428
scalar scenarioPRJP1.node[0].wlan.mac 	"numGivenUp AC 1" 	0
scalar scenarioPRJP1.node[0].wlan.mac 	"numGivenUp AC 2" 	0
scalar scenarioPRJP1.node[0].wlan.mac 	"numGivenUp AC 3" 	0
scalar scenarioPRJP1.node[0].wlan.mac 	"numDropped AC 0" 	41
scalar scenarioPRJP1.node[0].wlan.mac 	"numDropped AC 1" 	0
scalar scenarioPRJP1.node[0].wlan.mac 	"numDropped AC 2" 	0
scalar scenarioPRJP1.node[0].wlan.mac 	"numDropped AC 3" 	0
scalar scenarioPRJP1.node[0].wlan.mac 	rcvdPkFromLL:count 	375910
attr interpolationmode  none
attr source  packetReceivedFromLower
attr title  "packets received from lower layer, count"
scalar scenarioPRJP1.node[0].wlan.mac 	rcvdPkFromLL:sum(packetBytes) 	100029528
attr interpolationmode  none
attr source  packetReceivedFromLower
attr title  "packets received from lower layer, sum(packetBytes)"
scalar scenarioPRJP1.node[0].wlan.mac 	sentDownPk:count 	56192
attr interpolationmode  none
attr source  packetSentToLower
attr title  "packets sent to lower layer, count"
scalar scenarioPRJP1.node[0].wlan.mac 	sentDownPk:sum(packetBytes) 	15087542
attr interpolationmode  none
attr source  packetSentToLower
attr title  "packets sent to lower layer, sum(packetBytes)"
scalar scenarioPRJP1.node[0].wlan.mac 	rcvdPkFromHL:count 	18088
attr interpolationmode  none
attr source  packetReceivedFromUpper
attr title  "packets received from higher layer, count"
scalar scenarioPRJP1.node[0].wlan.mac 	rcvdPkFromHL:sum(packetBytes) 	4015204
attr interpolationmode  none
attr source  packetReceivedFromUpper
attr title  "packets received from higher layer, sum(packetBytes)"
scalar scenarioPRJP1.node[0].wlan.mac 	passedUpPk:count 	40342
attr interpolationmode  none
attr source  packetSentToUpper
attr title  "packets passed to higher layer, count"
scalar scenarioPRJP1.node[0].wlan.mac 	passedUpPk:sum(packetBytes) 	4165316
attr interpolationmode  none
attr source  packetSentToUpper
attr title  "packets passed to higher layer, sum(packetBytes)"
statistic scenarioPRJP1.node[0].wlan.radio 	radioChannel:histogram
field count 1
field mean 3
field stddev nan
field sum 3
field sqrsum 9
field min 3
field max 3
attr interpolationmode  sample-hold
attr source  radioChannelChanged
attr title  "Radio channel, histogram"
bin	-INF	0
bin	2	0
bin	3	1
bin	4	0
scalar scenarioPRJP1.node[0].wlan.radio 	transmissionState:count 	224768
attr interpolationmode  sample-hold
attr source  transmissionStateChanged
attr title  "Radio transmission state, count"
scalar scenarioPRJP1.node[0].wlan.radio 	receptionState:count 	903701
attr interpolationmode  sample-hold
attr source  receptionStateChanged
attr title  "Radio reception state, count"
scalar scenarioPRJP1.node[0].wlan.radio 	radioMode:count 	112386
attr interpolationmode  sample-hold
attr source  radioModeChanged
attr title  "Radio mode, count"
statistic scenarioPRJP1.node[0].wlan.radio 	symbolErrorRate:histogram
field count 0
field mean nan
field stddev nan
field sum 0
field sqrsum 0
field min nan
field max nan
attr source  symbolErrorRate
attr title  "Symbol error rate, histogram"
bin	-INF	0
bin	-0.5	0
bin	-0.46666666666667	0
bin	-0.43333333333333	0
bin	-0.4	0
bin	-0.36666666666667	0
bin	-0.33333333333333	0
bin	-0.3	0
bin	-0.26666666666667	0
bin	-0.23333333333333	0
bin	-0.2	0
bin	-0.16666666666667	0
bin	-0.13333333333333	0
bin	-0.1	0
bin	-0.066666666666667	0
bin	-0.033333333333333	0
bin	0	0
bin	0.033333333333333	0
bin	0.066666666666667	0
bin	0.1	0
bin	0.13333333333333	0
bin	0.16666666666667	0
bin	0.2	0
bin	0.23333333333333	0
bin	0.26666666666667	0
bin	0.3	0
bin	0.33333333333333	0
bin	0.36666666666667	0
bin	0.4	0
bin	0.43333333333333	0
bin	0.46666666666667	0
bin	0.5	0
statistic scenarioPRJP1.node[0].wlan.radio 	bitErrorRate:histogram
field count 0
field mean nan
field stddev nan
field sum 0
field sqrsum 0
field min nan
field max nan
attr source  bitErrorRate
attr title  "Bit error rate, histogram"
bin	-INF	0
bin	-0.5	0
bin	-0.46666666666667	0
bin	-0.43333333333333	0
bin	-0.4	0
bin	-0.36666666666667	0
bin	-0.33333333333333	0
bin	-0.3	0
bin	-0.26666666666667	0
bin	-0.23333333333333	0
bin	-0.2	0
bin	-0.16666666666667	0
bin	-0.13333333333333	0
bin	-0.1	0
bin	-0.066666666666667	0
bin	-0.033333333333333	0
bin	0	0
bin	0.033333333333333	0
bin	0.066666666666667	0
bin	0.1	0
bin	0.13333333333333	0
bin	0.16666666666667	0
bin	0.2	0
bin	0.23333333333333	0
bin	0.26666666666667	0
bin	0.3	0
bin	0.33333333333333	0
bin	0.36666666666667	0
bin	0.4	0
bin	0.43333333333333	0
bin	0.46666666666667	0
bin	0.5	0
statistic scenarioPRJP1.node[0].wlan.radio 	packetErrorRate:histogram
field count 375910
field mean 0.23410898220886
field stddev 0.41516157915151
field sum 88003.907502131
field sqrsum 85393.855972422
field min 0
field max 1
attr source  packetErrorRate
attr title  "Packet error rate, histogram"
bin	-INF	0
bin	-0.5	0
bin	-0.43333333333333	0
bin	-0.36666666666667	0
bin	-0.3	0
bin	-0.23333333333333	0
bin	-0.16666666666667	0
bin	-0.1	0
bin	-0.033333333333333	277329
bin	0.033333333333333	4211
bin	0.1	2067
bin	0.16666666666667	1488
bin	0.23333333333333	1143
bin	0.3	897
bin	0.36666666666667	844
bin	0.43333333333333	768
bin	0.5	683
bin	0.56666666666667	664
bin	0.63333333333333	696
bin	0.7	728
bin	0.76666666666667	807
bin	0.83333333333333	873
bin	0.9	1399
bin	0.96666666666667	81313
bin	1.0333333333333	0
bin	1.1	0
bin	1.1666666666667	0
bin	1.2333333333333	0
bin	1.3	0
bin	1.3666666666667	0
bin	1.4333333333333	0
bin	1.5	0
statistic scenarioPRJP1.node[0].wlan.radio 	minSNIR:histogram
field count 375910
field mean 2107.2666153753
field stddev 23041.634864141
field sum 792142593.38575
field sqrsum 2.0124571059224e+14
field min 0.0001685117211918
field max 2820324.8029494
attr source  minSNIR
attr title  "Min SNIR, histogram"
bin	-INF	0
bin	-193.63977673798	0
bin	-167.71521004425	0
bin	-141.79064335053	0
bin	-115.8660766568	0
bin	-89.941509963067	0
bin	-64.016943269338	0
bin	-38.092376575609	0
bin	-12.16780988188	170472
bin	13.756756811849	45465
bin	39.681323505579	19299
bin	65.605890199308	12703
bin	91.530456893037	9026
bin	117.45502358677	8878
bin	143.37959028049	7876
bin	169.30415697422	6705
bin	195.22872366795	5672
bin	221.15329036168	4827
bin	247.07785705541	4189
bin	273.00242374914	3503
bin	298.92699044287	3269
bin	324.8515571366	2869
bin	350.77612383033	2594
bin	376.70069052406	2175
bin	402.62525721779	1864
bin	428.54982391152	1802
bin	454.47439060524	1602
bin	480.39895729897	1466
bin	506.3235239927	1426
bin	532.24809068643	1278
bin	558.17265738016	1131
bin	584.09722407389	55819
scalar scenarioPRJP1.node[0].lo0.lo 	droppedPkBitError:count 	0
attr interpolationmode  none
attr source  dropPkBitError
attr title  "packets dropped/bit error, count"
scalar scenarioPRJP1.node[0].lo0.lo 	droppedPkBitError:sum(packetBytes) 	0
attr interpolationmode  none
attr source  dropPkBitError
attr title  "packets dropped/bit error, sum(packetBytes)"
scalar scenarioPRJP1.node[0].lo0.lo 	rcvdPkFromHL:count 	104
attr interpolationmode  none
attr source  packetReceivedFromUpper
attr title  "packets received from higher layer, count"
scalar scenarioPRJP1.node[0].lo0.lo 	rcvdPkFromHL:sum(packetBytes) 	54080
attr interpolationmode  none
attr source  packetReceivedFromUpper
attr title  "packets received from higher layer, sum(packetBytes)"
scalar scenarioPRJP1.node[0].lo0.lo 	passedUpPk:count 	104
attr interpolationmode  none
attr source  packetSentToUpper
attr title  "packets passed to higher layer, count"
scalar scenarioPRJP1.node[0].lo0.lo 	passedUpPk:sum(packetBytes) 	54080
attr interpolationmode  none
attr source  packetSentToUpper
attr title  "packets passed to higher layer, sum(packetBytes)"
scalar scenarioPRJP1.node[21].app 	"Total sent" 	2617
scalar scenarioPRJP1.node[21].app 	"Total received" 	95
scalar scenarioPRJP1.node[21].app 	"Total deleted" 	1
scalar scenarioPRJP1.node[21].app 	dropPk:count 	1
attr interpolationmode  none
attr source  dropPk
attr title  "packets dropped, count"
scalar scenarioPRJP1.node[21].app 	dropPk:sum(packetBytes) 	512
attr interpolationmode  none
attr source  dropPk
attr title  "packets dropped, sum(packetBytes)"
scalar scenarioPRJP1.node[21].app 	outOfOrderPk:count 	14
attr interpolationmode  none
attr source  outOfOrderPk
attr title  "packets received out of order, count"
scalar scenarioPRJP1.node[21].app 	outOfOrderPk:sum(packetBytes) 	7168
attr interpolationmode  none
attr source  outOfOrderPk
attr title  "packets received out of order, sum(packetBytes)"
scalar scenarioPRJP1.node[21].app 	rcvdPk:count 	95
attr interpolationmode  none
attr source  rcvdPk
attr title  "packets received, count"
scalar scenarioPRJP1.node[21].app 	rcvdPk:sum(packetBytes) 	48640
attr interpolationmode  none
attr source  rcvdPk
attr title  "packets received, sum(packetBytes)"
statistic scenarioPRJP1.node[21].app 	endToEndDelay:histogram
field count 95
field mean 0.90360950997203
field stddev 2.5447425724569
field sum 85.842903447343
field sqrsum 686.28565136564
field min 0.000956169328
field max 16.65355941372
attr interpolationmode  none
attr source  messageAge(rcvdPk)
attr title  "delay, histogram"
attr unit  s
bin	-INF	0
bin	-8.325345452868	0
bin	-7.2151719032419	0
bin	-6.1049983536157	0
bin	-4.9948248039896	0
bin	-3.8846512543635	0
bin	-2.7744777047373	0
bin	-1.6643041551112	0
bin	-0.55413060548507	76
bin	0.55604294414107	6
bin	1.6662164937672	6
bin	2.7763900433933	0
bin	3.8865635930195	1
bin	4.9967371426456	1
bin	6.1069106922717	1
bin	7.2170842418979	2
bin	8.327257791524	0
bin	9.4374313411501	0
bin	10.547604890776	0
bin	11.657778440402	1
bin	12.767951990029	0
bin	13.878125539655	0
bin	14.988299089281	0
bin	16.098472638907	1
bin	17.208646188533	0
bin	18.318819738159	0
bin	19.428993287785	0
bin	20.539166837411	0
bin	21.649340387038	0
bin	22.759513936664	0
bin	23.86968748629	0
bin	24.979861035916	0
scalar scenarioPRJP1.node[21].app 	sentPk:count 	2617
attr interpolationmode  none
attr source  sentPk
attr title  "packets sent, count"
scalar scenarioPRJP1.node[21].app 	sentPk:sum(packetBytes) 	1339904
attr interpolationmode  none
attr source  sentPk
attr title  "packets sent, sum(packetBytes)"
scalar scenarioPRJP1.node[21].udp 	droppedPkBadChecksum:count 	0
attr interpolationmode  none
attr title  "packets dropped (checksum error), count"
scalar scenarioPRJP1.node[21].udp 	droppedPkWrongPort:count 	0
attr interpolationmode  none
attr title  "packets dropped (wrong port), count"
scalar scenarioPRJP1.node[21].udp 	passedUpPk:count 	110
attr interpolationmode  none
attr title  "packets passed up, count"
scalar scenarioPRJP1.node[21].udp 	rcvdPk:count 	110
attr interpolationmode  none
attr source  rcvdPk
attr title  "packets received, count"
scalar scenarioPRJP1.node[21].udp 	rcvdPk:sum(packetBytes) 	57200
attr interpolationmode  none
attr source  rcvdPk
attr title  "packets received, sum(packetBytes)"
scalar scenarioPRJP1.node[21].udp 	sentPk:count 	2617
attr interpolationmode  none
attr source  sentPk
attr title  "packets sent, count"
scalar scenarioPRJP1.node[21].udp 	sentPk:sum(packetBytes) 	1360840
attr interpolationmode  none
attr source  sentPk
attr title  "packets sent, sum(packetBytes)"
scalar scenarioPRJP1.node[21].networkLayer.arp 	failedARPResolution:count 	115
attr title  "ARP failed resolutions, count"
scalar scenarioPRJP1.node[21].networkLayer.arp 	completedARPResolution:count 	1569
attr title  "ARP completed resolutions, count"
scalar scenarioPRJP1.node[21].networkLayer.arp 	initiatedARPResolution:count 	198
attr title  "ARP initiated resolutions, count"
scalar scenarioPRJP1.node[21].networkLayer.arp 	sentReply:count 	60
attr title  "ARP replies sent, count"
scalar scenarioPRJP1.node[21].networkLayer.arp 	sentReq:count 	463
attr title  "ARP request sent, count"
scalar scenarioPRJP1.node[21].mobility 	startTime 	2.5
scalar scenarioPRJP1.node[21].mobility 	totalTime 	947.5
scalar scenarioPRJP1.node[21].mobility 	stopTime 	950
scalar scenarioPRJP1.node[21].mobility 	minSpeed 	2.4754610559908e-13
scalar scenarioPRJP1.node[21].mobility 	maxSpeed 	17.436199542861
scalar scenarioPRJP1.node[21].mobility 	totalDistance 	8961.3740768155
scalar scenarioPRJP1.node[21].mobility 	totalCO2Emission 	2356.2148708853
scalar scenarioPRJP1.node[21].wlan.mgmt 	dataQueueLen:max 	44
attr interpolationmode  sample-hold
attr title  "data queue length, max"
scalar scenarioPRJP1.node[21].wlan.mgmt 	dataQueueLen:timeavg 	0.096455782867393
attr interpolationmode  sample-hold
attr title  "data queue length, timeavg"
scalar scenarioPRJP1.node[21].wlan.mgmt 	dropPkByQueue:count 	0
attr interpolationmode  none
attr source  dropPkByQueue
attr title  "packets dropped by queue, count"
scalar scenarioPRJP1.node[21].wlan.mgmt 	dropPkByQueue:sum(packetBytes) 	0
attr interpolationmode  none
attr source  dropPkByQueue
attr title  "packets dropped by queue, sum(packetBytes)"
scalar scenarioPRJP1.node[21].wlan.mac 	"number of received packets" 	11880
scalar scenarioPRJP1.node[21].wlan.mac 	"number of collisions" 	89575
scalar scenarioPRJP1.node[21].wlan.mac 	"number of internal collisions" 	0
scalar scenarioPRJP1.node[21].wlan.mac 	"number of retry for AC 0" 	35996
scalar scenarioPRJP1.node[21].wlan.mac 	"number of retry for AC 1" 	0
scalar scenarioPRJP1.node[21].wlan.mac 	"number of retry for AC 2" 	0
scalar scenarioPRJP1.node[21].wlan.mac 	"number of retry for AC 3" 	0
scalar scenarioPRJP1.node[21].wlan.mac 	"sent and received bits" 	18070880
scalar scenarioPRJP1.node[21].wlan.mac 	"sent packet within AC 0" 	5480
scalar scenarioPRJP1.node[21].wlan.mac 	"sent packet within AC 1" 	0
scalar scenarioPRJP1.node[21].wlan.mac 	"sent packet within AC 2" 	0
scalar scenarioPRJP1.node[21].wlan.mac 	"sent packet within AC 3" 	0
scalar scenarioPRJP1.node[21].wlan.mac 	"sent in TXOP " 	0
scalar scenarioPRJP1.node[21].wlan.mac 	"sentWithoutRetry AC 0" 	4760
scalar scenarioPRJP1.node[21].wlan.mac 	"sentWithoutRetry AC 1" 	0
scalar scenarioPRJP1.node[21].wlan.mac 	"sentWithoutRetry AC 2" 	0
scalar scenarioPRJP1.node[21].wlan.mac 	"sentWithoutRetry AC 3" 	0
scalar scenarioPRJP1.node[21].wlan.mac 	"numGivenUp AC 0" 	5721
scalar scenarioPRJP1.node[21].wlan.mac 	"numGivenUp AC 1" 	0
scalar scenarioPRJP1.node[21].wlan.mac 	"numGivenUp AC 2" 	0
scalar scenarioPRJP1.node[21].wlan.mac 	"numGivenUp AC 3" 	0
scalar scenarioPRJP1.node[21].wlan.mac 	"numDropped AC 0" 	296
scalar scenarioPRJP1.node[21].wlan.mac 	"numDropped AC 1" 	0
scalar scenarioPRJP1.node[21].wlan.mac 	"numDropped AC 2" 	0
scalar scenarioPRJP1.node[21].wlan.mac 	"numDropped AC 3" 	0
scalar scenarioPRJP1.node[21].wlan.mac 	rcvdPkFromLL:count 	370131
attr interpolationmode  none
attr source  packetReceivedFromLower
attr title  "packets received from lower layer, count"
scalar scenarioPRJP1.node[21].wlan.mac 	rcvdPkFromLL:sum(packetBytes) 	91042466
attr interpolationmode  none
attr source  packetReceivedFromLower
attr title  "packets received from lower layer, sum(packetBytes)"
scalar scenarioPRJP1.node[21].wlan.mac 	sentDownPk:count 	70089
attr interpolationmode  none
attr source  packetSentToLower
attr title  "packets sent to lower layer, count"
scalar scenarioPRJP1.node[21].wlan.mac 	sentDownPk:sum(packetBytes) 	19325248
attr interpolationmode  none
attr source  packetSentToLower
attr title  "packets sent to lower layer, sum(packetBytes)"
scalar scenarioPRJP1.node[21].wlan.mac 	rcvdPkFromHL:count 	22509
attr interpolationmode  none
attr source  packetReceivedFromUpper
attr title  "packets received from higher layer, count"
scalar scenarioPRJP1.node[21].wlan.mac 	rcvdPkFromHL:sum(packetBytes) 	4606348
attr interpolationmode  none
attr source  packetReceivedFromUpper
attr title  "packets received from higher layer, sum(packetBytes)"
scalar scenarioPRJP1.node[21].wlan.mac 	passedUpPk:count 	59146
attr interpolationmode  none
attr source  packetSentToUpper
attr title  "packets passed to higher layer, count"
scalar scenarioPRJP1.node[21].wlan.mac 	passedUpPk:sum(packetBytes) 	5749392
attr interpolationmode  none
attr source  packetSentToUpper
attr title  "packets passed to higher layer, sum(packetBytes)"
statistic scenarioPRJP1.node[21].wlan.radio 	radioChannel:histogram
field count 1
field mean 3
field stddev nan
field sum 3
field sqrsum 9
field min 3
field max 3
attr interpolationmode  sample-hold
attr source  radioChannelChanged
attr title  "Radio channel, histogram"
bin	-INF	0
bin	2	0
bin	3	1
bin	4	0
scalar scenarioPRJP1.node[21].wlan.radio 	transmissionState:count 	280354
attr interpolationmode  sample-hold
attr source  transmissionStateChanged
attr title  "Radio transmission state, count"
scalar scenarioPRJP1.node[21].wlan.radio 	receptionState:count 	908900
attr interpolationmode  sample-hold
attr source  receptionStateChanged
attr title  "Radio reception state, count"
scalar scenarioPRJP1.node[21].wlan.radio 	radioMode:count 	140179
attr interpolationmode  sample-hold
attr source  radioModeChanged
attr title  "Radio mode, count"
statistic scenarioPRJP1.node[21].wlan.radio 	symbolErrorRate:histogram
field count 0
field mean nan
field stddev nan
field sum 0
field sqrsum 0
field min nan
field max nan
attr source  symbolErrorRate
attr title  "Symbol error rate, histogram"
bin	-INF	0
bin	-0.5	0
bin	-0.46666666666667	0
bin	-0.43333333333333	0
bin	-0.4	0
bin	-0.36666666666667	0
bin	-0.33333333333333	0
bin	-0.3	0
bin	-0.26666666666667	0
bin	-0.23333333333333	0
bin	-0.2	0
bin	-0.16666666666667	0
bin	-0.13333333333333	0
bin	-0.1	0
bin	-0.066666666666667	0
bin	-0.033333333333333	0
bin	0	0
bin	0.033333333333333	0
bin	0.066666666666667	0
bin	0.1	0
bin	0.13333333333333	0
bin	0.16666666666667	0
bin	0.2	0
bin	0.23333333333333	0
bin	0.26666666666667	0
bin	0.3	0
bin	0.33333333333333	0
bin	0.36666666666667	0
bin	0.4	0
bin	0.43333333333333	0
bin	0.46666666666667	0
bin	0.5	0
statistic scenarioPRJP1.node[21].wlan.radio 	bitErrorRate:histogram
field count 0
field mean nan
field stddev nan
field sum 0
field sqrsum 0
field min nan
field max nan
attr source  bitErrorRate
attr title  "Bit error rate, histogram"
bin	-INF	0
bin	-0.5	0
bin	-0.46666666666667	0
bin	-0.43333333333333	0
bin	-0.4	0
bin	-0.36666666666667	0
bin	-0.33333333333333	0
bin	-0.3	0
bin	-0.26666666666667	0
bin	-0.23333333333333	0
bin	-0.2	0
bin	-0.16666666666667	0
bin	-0.13333333333333	0
bin	-0.1	0
bin	-0.066666666666667	0
bin	-0.033333333333333	0
bin	0	0
bin	0.033333333333333	0
bin	0.066666666666667	0
bin	0.1	0
bin	0.13333333333333	0
bin	0.16666666666667	0
bin	0.2	0
bin	0.23333333333333	0
bin	0.26666666666667	0
bin	0.3	0
bin	0.33333333333333	0
bin	0.36666666666667	0
bin	0.4	0
bin	0.43333333333333	0
bin	0.46666666666667	0
bin	0.5	0
statistic scenarioPRJP1.node[21].wlan.radio 	packetErrorRate:histogram
field count 370131
field mean 0.22687488603517
field stddev 0.40966930636797
field sum 83973.428443085
field sqrsum 81169.987784889
field min 0
field max 1
attr source  packetErrorRate
attr title  "Packet error rate, histogram"
bin	-INF	0
bin	-0.5	0
bin	-0.43333333333333	0
bin	-0.36666666666667	0
bin	-0.3	0
bin	-0.23333333333333	0
bin	-0.16666666666667	0
bin	-0.1	0
bin	-0.033333333333333	274530
bin	0.033333333333333	4853
bin	0.1	2223
bin	0.16666666666667	1585
bin	0.23333333333333	1199
bin	0.3	987
bin	0.36666666666667	897
bin	0.43333333333333	760
bin	0.5	771
bin	0.56666666666667	731
bin	0.63333333333333	751
bin	0.7	785
bin	0.76666666666667	820
bin	0.83333333333333	931
bin	0.9	1441
bin	0.96666666666667	76867
bin	1.0333333333333	0
bin	1.1	0
bin	1.1666666666667	0
bin	1.2333333333333	0
bin	1.3	0
bin	1.3666666666667	0
bin	1.4333333333333	0
bin	1.5	0
statistic scenarioPRJP1.node[21].wlan.radio 	minSNIR:histogram
field count 370131
field mean 1684.4464067261
field stddev 19882.194999958
field sum 623465832.96792
field sqrsum 1.4736320486625e+14
field min 0.00016787148302566
field max 2106056.0887616
attr source  minSNIR
attr title  "Min SNIR, histogram"
bin	-INF	0
bin	-76.10363307643	0
bin	-65.946711397648	0
bin	-55.789789718866	0
bin	-45.632868040084	0
bin	-35.475946361302	0
bin	-25.31902468252	0
bin	-15.162103003738	0
bin	-5.0051813249562	118513
bin	5.1517403538258	67388
bin	15.308662032608	24241
bin	25.46558371139	14154
bin	35.622505390172	9849
bin	45.779427068954	7864
bin	55.936348747736	6744
bin	66.093270426518	5708
bin	76.2501921053	5025
bin	86.407113784082	4486
bin	96.564035462864	3886
bin	106.72095714165	3608
bin	116.87787882043	3130
bin	127.03480049921	3660
bin	137.19172217799	3476
bin	147.34864385677	3038
bin	157.50556553556	2784
bin	167.66248721434	2533
bin	177.81940889312	2258
bin	187.9763305719	2114
bin	198.13325225068	2040
bin	208.29017392947	1684
bin	218.44709560825	1566
bin	228.60401728703	70382
scalar scenarioPRJP1.node[21].lo0.lo 	droppedPkBitError:count 	0
attr interpolationmode  none
attr source  dropPkBitError
attr title  "packets dropped/bit error, count"
scalar scenarioPRJP1.node[21].lo0.lo 	droppedPkBitError:sum(packetBytes) 	0
attr interpolationmode  none
attr source  dropPkBitError
attr title  "packets dropped/bit error, sum(packetBytes)"
scalar scenarioPRJP1.node[21].lo0.lo 	rcvdPkFromHL:count 	110
attr interpolationmode  none
attr source  packetReceivedFromUpper
attr title  "packets received from higher layer, count"
scalar scenarioPRJP1.node[21].lo0.lo 	rcvdPkFromHL:sum(packetBytes) 	57200
attr interpolationmode  none
attr source  packetReceivedFromUpper
attr title  "packets received from higher layer, sum(packetBytes)"
scalar scenarioPRJP1.node[21].lo0.lo 	passedUpPk:count 	110
attr interpolationmode  none
attr source  packetSentToUpper
attr title  "packets passed to higher layer, count"
scalar scenarioPRJP1.node[21].lo0.lo 	passedUpPk:sum(packetBytes) 	57200
attr interpolationmode  none
attr source  packetSentToUpper
attr title  "packets passed to higher layer, sum(packetBytes)"
scalar scenarioPRJP1.node[43].app 	"Total sent" 	2613
scalar scenarioPRJP1.node[43].app 	"Total received" 	80
scalar scenarioPRJP1.node[43].app 	"Total deleted" 	2
scalar scenarioPRJP1.node[43].app 	dropPk:count 	2
attr interpolationmode  none
attr source  dropPk
attr title  "packets dropped, count"
scalar scenarioPRJP1.node[43].app 	dropPk:sum(packetBytes) 	1024
attr interpolationmode  none
attr source  dropPk
attr title  "packets dropped, sum(packetBytes)"
scalar scenarioPRJP1.node[43].app 	outOfOrderPk:count 	8
attr interpolationmode  none
attr source  outOfOrderPk
attr title  "packets received out of order, count"
scalar scenarioPRJP1.node[43].app 	outOfOrderPk:sum(packetBytes) 	4096
attr interpolationmode  none
attr source  outOfOrderPk
attr title  "packets received out of order, sum(packetBytes)"
scalar scenarioPRJP1.node[43].app 	rcvdPk:count 	80
attr interpolationmode  none
attr source  rcvdPk
attr title  "packets received, count"
scalar scenarioPRJP1.node[43].app 	rcvdPk:sum(packetBytes) 	40960
attr interpolationmode  none
attr source  rcvdPk
attr title  "packets received, sum(packetBytes)"
statistic scenarioPRJP1.node[43].app 	endToEndDelay:histogram
field count 80
field mean 0.95912352317455
field stddev 2.1028697902848
field sum 76.729881853964
field sqrsum 422.93628165303
field min 0.000964312159
field max 10.918351490627
attr interpolationmode  none
attr source  messageAge(rcvdPk)
attr title  "delay, histogram"
attr unit  s
bin	-INF	0
bin	-5.457729277075	0
bin	-4.7299034651771	0
bin	-4.0020776532793	0
bin	-3.2742518413814	0
bin	-2.5464260294835	0
bin	-1.8186002175857	0
bin	-1.0907744056878	0
bin	-0.36294859378993	53
bin	0.36487721810793	9
bin	1.0927030300058	6
bin	1.8205288419037	2
bin	2.5483546538015	3
bin	3.2761804656994	2
bin	4.0040062775973	1
bin	4.7318320894951	0
bin	5.459657901393	0
bin	6.1874837132909	0
bin	6.9153095251887	1
bin	7.6431353370866	1
bin	8.3709611489845	0
bin	9.0987869608823	1
bin	9.8266127727802	0
bin	10.554438584678	1
bin	11.282264396576	0
bin	12.010090208474	0
bin	12.737916020372	0
bin	13.46574183227	0
bin	14.193567644167	0
bin	14.921393456065	0
bin	15.649219267963	0
bin	16.377045079861	0
scalar scenarioPRJP1.node[43].app 	sentPk:count 	2613
attr interpolationmode  none
attr source  sentPk
attr title  "packets sent, count"
scalar scenarioPRJP1.node[43].app 	sentPk:sum(packetBytes) 	1337856
attr interpolationmode  none
attr source  sentPk
attr title  "packets sent, sum(packetBytes)"
scalar scenarioPRJP1.node[43].udp 	droppedPkBadChecksum:count 	0
attr interpolationmode  none
attr title  "packets dropped (checksum error), count"
scalar scenarioPRJP1.node[43].udp 	droppedPkWrongPort:count 	0
attr interpolationmode  none
attr title  "packets dropped (wrong port), count"
scalar scenarioPRJP1.node[43].udp 	passedUpPk:count 	90
attr interpolationmode  none
attr title  "packets passed up, count"
scalar scenarioPRJP1.node[43].udp 	rcvdPk:count 	90
attr interpolationmode  none
attr source  rcvdPk
attr title  "packets received, count"
scalar scenarioPRJP1.node[43].udp 	rcvdPk:sum(packetBytes) 	46800
attr interpolationmode  none
attr source  rcvdPk
attr title  "packets received, sum(packetBytes)"
scalar scenarioPRJP1.node[43].udp 	sentPk:count 	2613
attr interpolationmode  none
attr source  sentPk
attr title  "packets sent, count"
scalar scenarioPRJP1.node[43].udp 	sentPk:sum(packetBytes) 	1358760
attr interpolationmode  none
attr source  sentPk
attr title  "packets sent, sum(packetBytes)"
scalar scenarioPRJP1.node[43].networkLayer.arp 	failedARPResolution:count 	108
attr title  "ARP failed resolutions, count"
scalar scenarioPRJP1.node[43].networkLayer.arp 	completedARPResolution:count 	1491
attr title  "ARP completed resolutions, count"
scalar scenarioPRJP1.node[43].networkLayer.arp 	initiatedARPResolution:count 	173
attr title  "ARP initiated resolutions, count"
scalar scenarioPRJP1.node[43].networkLayer.arp 	sentReply:count 	64
attr title  "ARP replies sent, count"
scalar scenarioPRJP1.node[43].networkLayer.arp 	sentReq:count 	416
attr title  "ARP request sent, count"
scalar scenarioPRJP1.node[43].mobility 	startTime 	4.9
scalar scenarioPRJP1.node[43].mobility 	totalTime 	945.1
scalar scenarioPRJP1.node[43].mobility 	stopTime 	950
scalar scenarioPRJP1.node[43].mobility 	minSpeed 	2.4760702399e-13
scalar scenarioPRJP1.node[43].mobility 	maxSpeed 	13.400860948825
scalar scenarioPRJP1.node[43].mobility 	totalDistance 	8592.5332568603
scalar scenarioPRJP1.node[43].mobility 	totalCO2Emission 	2027.7563681149
scalar scenarioPRJP1.node[43].wlan.mgmt 	dataQueueLen:max 	12
attr interpolationmode  sample-hold
attr title  "data queue length, max"
scalar scenarioPRJP1.node[43].wlan.mgmt 	dataQueueLen:timeavg 	4.8851008782139e-06
attr interpolationmode  sample-hold
attr title  "data queue length, timeavg"
scalar scenarioPRJP1.node[43].wlan.mgmt 	dropPkByQueue:count 	0
attr interpolationmode  none
attr source  dropPkByQueue
attr title  "packets dropped by queue, count"
scalar scenarioPRJP1.node[43].wlan.mgmt 	dropPkByQueue:sum(packetBytes) 	0
attr interpolationmode  none
attr source  dropPkByQueue
attr title  "packets dropped by queue, sum(packetBytes)"
scalar scenarioPRJP1.node[43].wlan.mac 	"number of received packets" 	10622
scalar scenarioPRJP1.node[43].wlan.mac 	"number of collisions" 	80389
scalar scenarioPRJP1.node[43].wlan.mac 	"number of internal collisions" 	0
scalar scenarioPRJP1.node[43].wlan.mac 	"number of retry for AC 0" 	29291
scalar scenarioPRJP1.node[43].wlan.mac 	"number of retry for AC 1" 	0
scalar scenarioPRJP1.node[43].wlan.mac 	"number of retry for AC 2" 	0
scalar scenarioPRJP1.node[43].wlan.mac 	"number of retry for AC 3" 	0
scalar scenarioPRJP1.node[43].wlan.mac 	"sent and received bits" 	16367072
scalar scenarioPRJP1.node[43].wlan.mac 	"sent packet within AC 0" 	4735
scalar scenarioPRJP1.node[43].wlan.mac 	"sent packet within AC 1" 	0
scalar scenarioPRJP1.node[43].wlan.mac 	"sent packet within AC 2" 	0
scalar scenarioPRJP1.node[43].wlan.mac 	"sent packet within AC 3" 	0
scalar scenarioPRJP1.node[43].wlan.mac 	"sent in TXOP " 	0
scalar scenarioPRJP1.node[43].wlan.mac 	"sentWithoutRetry AC 0" 	4169
scalar scenarioPRJP1.node[43].wlan.mac 	"sentWithoutRetry AC 1" 	0
scalar scenarioPRJP1.node[43].wlan.mac 	"sentWithoutRetry AC 2" 	0
scalar scenarioPRJP1.node[43].wlan.mac 	"sentWithoutRetry AC 3" 	0
scalar scenarioPRJP1.node[43].wlan.mac 	"numGivenUp AC 0" 	4659
scalar scenarioPRJP1.node[43].wlan.mac 	"numGivenUp AC 1" 	0
scalar scenarioPRJP1.node[43].wlan.mac 	"numGivenUp AC 2" 	0
scalar scenarioPRJP1.node[43].wlan.mac 	"numGivenUp AC 3" 	0
scalar scenarioPRJP1.node[43].wlan.mac 	"numDropped AC 0" 	6
scalar scenarioPRJP1.node[43].wlan.mac 	"numDropped AC 1" 	0
scalar scenarioPRJP1.node[43].wlan.mac 	"numDropped AC 2" 	0
scalar scenarioPRJP1.node[43].wlan.mac 	"numDropped AC 3" 	0
scalar scenarioPRJP1.node[43].wlan.mac 	rcvdPkFromLL:count 	318293
attr interpolationmode  none
attr source  packetReceivedFromLower
attr title  "packets received from lower layer, count"
scalar scenarioPRJP1.node[43].wlan.mac 	rcvdPkFromLL:sum(packetBytes) 	81759474
attr interpolationmode  none
attr source  packetReceivedFromLower
attr title  "packets received from lower layer, sum(packetBytes)"
scalar scenarioPRJP1.node[43].wlan.mac 	sentDownPk:count 	58505
attr interpolationmode  none
attr source  packetSentToLower
attr title  "packets sent to lower layer, count"
scalar scenarioPRJP1.node[43].wlan.mac 	sentDownPk:sum(packetBytes) 	16133140
attr interpolationmode  none
attr source  packetSentToLower
attr title  "packets sent to lower layer, sum(packetBytes)"
scalar scenarioPRJP1.node[43].wlan.mac 	rcvdPkFromHL:count 	18598
attr interpolationmode  none
attr source  packetReceivedFromUpper
attr title  "packets received from higher layer, count"
scalar scenarioPRJP1.node[43].wlan.mac 	rcvdPkFromHL:sum(packetBytes) 	3953120
attr interpolationmode  none
attr source  packetReceivedFromUpper
attr title  "packets received from higher layer, sum(packetBytes)"
scalar scenarioPRJP1.node[43].wlan.mac 	passedUpPk:count 	41044
attr interpolationmode  none
attr source  packetSentToUpper
attr title  "packets passed to higher layer, count"
scalar scenarioPRJP1.node[43].wlan.mac 	passedUpPk:sum(packetBytes) 	4151004
attr interpolationmode  none
attr source  packetSentToUpper
attr title  "packets passed to higher layer, sum(packetBytes)"
statistic scenarioPRJP1.node[43].wlan.radio 	radioChannel:histogram
field count 1
field mean 3
field stddev nan
field sum 3
field sqrsum 9
field min 3
field max 3
attr interpolationmode  sample-hold
attr source  radioChannelChanged
attr title  "Radio channel, histogram"
bin	-INF	0
bin	2	0
bin	3	1
bin	4	0
scalar scenarioPRJP1.node[43].wlan.radio 	transmissionState:count 	234020
attr interpolationmode  sample-hold
attr source  transmissionStateChanged
attr title  "Radio transmission state, count"
scalar scenarioPRJP1.node[43].wlan.radio 	receptionState:count 	779069
attr interpolationmode  sample-hold
attr source  receptionStateChanged
attr title  "Radio reception state, count"
scalar scenarioPRJP1.node[43].wlan.radio 	radioMode:count 	117012
attr interpolationmode  sample-hold
attr source  radioModeChanged
attr title  "Radio mode, count"
statistic scenarioPRJP1.node[43].wlan.radio 	symbolErrorRate:histogram
field count 0
field mean nan
field stddev nan
field sum 0
field sqrsum 0
field min nan
field max nan
attr source  symbolErrorRate
attr title  "Symbol error rate, histogram"
bin	-INF	0
bin	-0.5	0
bin	-0.46666666666667	0
bin	-0.43333333333333	0
bin	-0.4	0
bin	-0.36666666666667	0
bin	-0.33333333333333	0
bin	-0.3	0
bin	-0.26666666666667	0
bin	-0.23333333333333	0
bin	-0.2	0
bin	-0.16666666666667	0
bin	-0.13333333333333	0
bin	-0.1	0
bin	-0.066666666666667	0
bin	-0.033333333333333	0
bin	0	0
bin	0.033333333333333	0
bin	0.066666666666667	0
bin	0.1	0
bin	0.13333333333333	0
bin	0.16666666666667	0
bin	0.2	0
bin	0.23333333333333	0
bin	0.26666666666667	0
bin	0.3	0
bin	0.33333333333333	0
bin	0.36666666666667	0
bin	0.4	0
bin	0.43333333333333	0
bin	0.46666666666667	0
bin	0.5	0
statistic scenarioPRJP1.node[43].wlan.radio 	bitErrorRate:histogram
field count 0
field mean nan
field stddev nan
field sum 0
field sqrsum 0
field min nan
field max nan
attr source  bitErrorRate
attr title  "Bit error rate, histogram"
bin	-INF	0
bin	-0.5	0
bin	-0.46666666666667	0
bin	-0.43333333333333	0
bin	-0.4	0
bin	-0.36666666666667	0
bin	-0.33333333333333	0
bin	-0.3	0
bin	-0.26666666666667	0
bin	-0.23333333333333	0
bin	-0.2	0
bin	-0.16666666666667	0
bin	-0.13333333333333	0
bin	-0.1	0
bin	-0.066666666666667	0
bin	-0.033333333333333	0
bin	0	0
bin	0.033333333333333	0
bin	0.066666666666667	0
bin	0.1	0
bin	0.13333333333333	0
bin	0.16666666666667	0
bin	0.2	0
bin	0.23333333333333	0
bin	0.26666666666667	0
bin	0.3	0
bin	0.33333333333333	0
bin	0.36666666666667	0
bin	0.4	0
bin	0.43333333333333	0
bin	0.46666666666667	0
bin	0.5	0
statistic scenarioPRJP1.node[43].wlan.radio 	packetErrorRate:histogram
field count 318293
field mean 0.23860482777429
field stddev 0.41721996888715
field sum 75946.246446763
field sqrsum 73527.025999591
field min 0
field max 1
attr source  packetErrorRate
attr title  "Packet error rate, histogram"
bin	-INF	0
bin	-0.5	0
bin	-0.43333333333333	0
bin	-0.36666666666667	0
bin	-0.3	0
bin	-0.23333333333333	0
bin	-0.16666666666667	0
bin	-0.1	0
bin	-0.033333333333333	232275
bin	0.033333333333333	4199
bin	0.1	1984
bin	0.16666666666667	1317
bin	0.23333333333333	1052
bin	0.3	863
bin	0.36666666666667	733
bin	0.43333333333333	719
bin	0.5	640
bin	0.56666666666667	630
bin	0.63333333333333	612
bin	0.7	630
bin	0.76666666666667	759
bin	0.83333333333333	817
bin	0.9	1306
bin	0.96666666666667	69757
bin	1.0333333333333	0
bin	1.1	0
bin	1.1666666666667	0
bin	1.2333333333333	0
bin	1.3	0
bin	1.3666666666667	0
bin	1.4333333333333	0
bin	1.5	0
statistic scenarioPRJP1.node[43].wlan.radio 	minSNIR:histogram
field count 318293
field mean 2137.7561672696
field stddev 23525.104504574
field sum 680432823.74875
field sqrsum 1.7760711352409e+14
field min 0.0001839468647654
field max 753239.71923443
attr source  minSNIR
attr title  "Min SNIR, histogram"
bin	-INF	0
bin	-6045.1521855534	0
bin	-5238.9696021947	0
bin	-4432.787018836	0
bin	-3626.6044354773	0
bin	-2820.4218521186	0
bin	-2014.2392687598	0
bin	-1208.0566854011	0
bin	-401.87410204244	267037
bin	404.30848131626	18438
bin	1210.491064675	6927
bin	2016.6736480337	3614
bin	2822.8562313924	2713
bin	3629.0388147511	2317
bin	4435.2213981098	1818
bin	5241.4039814685	1507
bin	6047.5865648272	1378
bin	6853.7691481859	1147
bin	7659.9517315446	1156
bin	8466.1343149033	802
bin	9272.316898262	830
bin	10078.499481621	726
bin	10884.682064979	636
bin	11690.864648338	505
bin	12497.047231697	478
bin	13303.229815056	236
bin	14109.412398414	251
bin	14915.594981773	216
bin	15721.777565132	221
bin	16527.96014849	191
bin	17334.142731849	179
bin	18140.325315208	4970
scalar scenarioPRJP1.node[43].lo0.lo 	droppedPkBitError:count 	0
attr interpolationmode  none
attr source  dropPkBitError
attr title  "packets dropped/bit error, count"
scalar scenarioPRJP1.node[43].lo0.lo 	droppedPkBitError:sum(packetBytes) 	0
attr interpolationmode  none
attr source  dropPkBitError
attr title  "packets dropped/bit error, sum(packetBytes)"
scalar scenarioPRJP1.node[43].lo0.lo 	rcvdPkFromHL:count 	90
attr interpolationmode  none
attr source  packetReceivedFromUpper
attr title  "packets received from higher layer, count"
scalar scenarioPRJP1.node[43].lo0.lo 	rcvdPkFromHL:sum(packetBytes) 	46800
attr interpolationmode  none
attr source  packetReceivedFromUpper
attr title  "packets received from higher layer, sum(packetBytes)"
scalar scenarioPRJP1.node[43].lo0.lo 	passedUpPk:count 	90
attr interpolationmode  none
attr source  packetSentToUpper
attr title  "packets passed to higher layer, count"
scalar scenarioPRJP1.node[43].lo0.lo 	passedUpPk:sum(packetBytes) 	46800
attr interpolationmode  none
attr source  packetSentToUpper
attr title  "packets passed to higher layer, sum(packetBytes)"
scalar scenarioPRJP1.node[77].app 	"Total sent" 	2606
scalar scenarioPRJP1.node[77].app 	"Total received" 	83
scalar scenarioPRJP1.node[77].app 	"Total deleted" 	3
scalar scenarioPRJP1.node[77].app 	dropPk:count 	3
attr interpolationmode  none
attr source  dropPk
attr title  "packets dropped, count"
scalar scenarioPRJP1.node[77].app 	dropPk:sum(packetBytes) 	1536
attr interpolationmode  none
attr source  dropPk
attr title  "packets dropped, sum(packetBytes)"
scalar scenarioPRJP1.node[77].app 	outOfOrderPk:count 	6
attr interpolationmode  none
attr source  outOfOrderPk
attr title  "packets received out of order, count"
scalar scenarioPRJP1.node[77].app 	outOfOrderPk:sum(packetBytes) 	3072
attr interpolationmode  none
attr source  outOfOrderPk
attr title  "packets received out of order, sum(packetBytes)"
scalar scenarioPRJP1.node[77].app 	rcvdPk:count 	83
attr interpolationmode  none
attr source  rcvdPk
attr title  "packets received, count"
scalar scenarioPRJP1.node[77].app 	rcvdPk:sum(packetBytes) 	42496
attr interpolationmode  none
attr source  rcvdPk
attr title  "packets received, sum(packetBytes)"
statistic scenarioPRJP1.node[77].app 	endToEndDelay:histogram
field count 83
field mean 1.9276474459378
field stddev 4.605766796573
field sum 159.99473801283
field sqrsum 2047.8866464159
field min 0.000964291157
field max 19.445346022707
attr interpolationmode  none
attr source  messageAge(rcvdPk)
attr title  "delay, histogram"
attr unit  s
bin	-INF	0
bin	-9.721226574618	0
bin	-8.4249344591813	0
bin	-7.1286423437447	0
bin	-5.832350228308	0
bin	-4.5360581128713	0
bin	-3.2397659974347	0
bin	-1.943473881998	0
bin	-0.64718176656133	59
bin	0.64911034887533	9
bin	1.945402464312	4
bin	3.2416945797487	2
bin	4.5379866951853	0
bin	5.834278810622	0
bin	7.1305709260587	0
bin	8.4268630414953	2
bin	9.723155156932	1
bin	11.019447272369	1
bin	12.315739387805	0
bin	13.612031503242	0
bin	14.908323618679	1
bin	16.204615734115	1
bin	17.500907849552	1
bin	18.797199964989	2
bin	20.093492080425	0
bin	21.389784195862	0
bin	22.686076311299	0
bin	23.982368426735	0
bin	25.278660542172	0
bin	26.574952657609	0
bin	27.871244773045	0
bin	29.167536888482	0
scalar scenarioPRJP1.node[77].app 	sentPk:count 	2606
attr interpolationmode  none
attr source  sentPk
attr title  "packets sent, count"
scalar scenarioPRJP1.node[77].app 	sentPk:sum(packetBytes) 	1334272
attr interpolationmode  none
attr source  sentPk
attr title  "packets sent, sum(packetBytes)"
scalar scenarioPRJP1.node[77].udp 	droppedPkBadChecksum:count 	0
attr interpolationmode  none
attr title  "packets dropped (checksum error), count"
scalar scenarioPRJP1.node[77].udp 	droppedPkWrongPort:count 	0
attr interpolationmode  none
attr title  "packets dropped (wrong port), count"
scalar scenarioPRJP1.node[77].udp 	passedUpPk:count 	92
attr interpolationmode  none
attr title  "packets passed up, count"
scalar scenarioPRJP1.node[77].udp 	rcvdPk:count 	92
attr interpolationmode  none
attr source  rcvdPk
attr title  "packets received, count"
scalar scenarioPRJP1.node[77].udp 	rcvdPk:sum(packetBytes) 	47840
attr interpolationmode  none
attr source  rcvdPk
attr title  "packets received, sum(packetBytes)"
scalar scenarioPRJP1.node[77].udp 	sentPk:count 	2606
attr interpolationmode  none
attr source  sentPk
attr title  "packets sent, count"
scalar scenarioPRJP1.node[77].udp 	sentPk:sum(packetBytes) 	1355120
attr interpolationmode  none
attr source  sentPk
attr title  "packets sent, sum(packetBytes)"
scalar scenarioPRJP1.node[77].networkLayer.arp 	failedARPResolution:count 	63
attr title  "ARP failed resolutions, count"
scalar scenarioPRJP1.node[77].networkLayer.arp 	completedARPResolution:count 	1620
attr title  "ARP completed resolutions, count"
scalar scenarioPRJP1.node[77].networkLayer.arp 	initiatedARPResolution:count 	132
attr title  "ARP initiated resolutions, count"
scalar scenarioPRJP1.node[77].networkLayer.arp 	sentReply:count 	69
attr title  "ARP replies sent, count"
scalar scenarioPRJP1.node[77].networkLayer.arp 	sentReq:count 	292
attr title  "ARP request sent, count"
scalar scenarioPRJP1.node[77].mobility 	startTime 	7.4
scalar scenarioPRJP1.node[77].mobility 	totalTime 	942.6
scalar scenarioPRJP1.node[77].mobility 	stopTime 	950
scalar scenarioPRJP1.node[77].mobility 	minSpeed 	2.4755976167518e-13
scalar scenarioPRJP1.node[77].mobility 	maxSpeed 	17.097884450828
scalar scenarioPRJP1.node[77].mobility 	totalDistance 	9311.3942382855
scalar scenarioPRJP1.node[77].mobility 	totalCO2Emission 	2470.7475449479
scalar scenarioPRJP1.node[77].wlan.mgmt 	dataQueueLen:max 	28
attr interpolationmode  sample-hold
attr title  "data queue length, max"
scalar scenarioPRJP1.node[77].wlan.mgmt 	dataQueueLen:timeavg 	0.003043118881046
attr interpolationmode  sample-hold
attr title  "data queue length, timeavg"
scalar scenarioPRJP1.node[77].wlan.mgmt 	dropPkByQueue:count 	0
attr interpolationmode  none
attr source  dropPkByQueue
attr title  "packets dropped by queue, count"
scalar scenarioPRJP1.node[77].wlan.mgmt 	dropPkByQueue:sum(packetBytes) 	0
attr interpolationmode  none
attr source  dropPkByQueue
attr title  "packets dropped by queue, sum(packetBytes)"
scalar scenarioPRJP1.node[77].wlan.mac 	"number of received packets" 	9513
scalar scenarioPRJP1.node[77].wlan.mac 	"number of collisions" 	66260
scalar scenarioPRJP1.node[77].wlan.mac 	"number of internal collisions" 	0
scalar scenarioPRJP1.node[77].wlan.mac 	"number of retry for AC 0" 	25352
scalar scenarioPRJP1.node[77].wlan.mac 	"number of retry for AC 1" 	0
scalar scenarioPRJP1.node[77].wlan.mac 	"number of retry for AC 2" 	0
scalar scenarioPRJP1.node[77].wlan.mac 	"number of retry for AC 3" 	0
scalar scenarioPRJP1.node[77].wlan.mac 	"sent and received bits" 	16496384
scalar scenarioPRJP1.node[77].wlan.mac 	"sent packet within AC 0" 	4082
scalar scenarioPRJP1.node[77].wlan.mac 	"sent packet within AC 1" 	0
scalar scenarioPRJP1.node[77].wlan.mac 	"sent packet within AC 2" 	0
scalar scenarioPRJP1.node[77].wlan.mac 	"sent packet within AC 3" 	0
scalar scenarioPRJP1.node[77].wlan.mac 	"sent in TXOP " 	0
scalar scenarioPRJP1.node[77].wlan.mac 	"sentWithoutRetry AC 0" 	3553
scalar scenarioPRJP1.node[77].wlan.mac 	"sentWithoutRetry AC 1" 	0
scalar scenarioPRJP1.node[77].wlan.mac 	"sentWithoutRetry AC 2" 	0
scalar scenarioPRJP1.node[77].wlan.mac 	"sentWithoutRetry AC 3" 	0
scalar scenarioPRJP1.node[77].wlan.mac 	"numGivenUp AC 0" 	4022
scalar scenarioPRJP1.node[77].wlan.mac 	"numGivenUp AC 1" 	0
scalar scenarioPRJP1.node[77].wlan.mac 	"numGivenUp AC 2" 	0
scalar scenarioPRJP1.node[77].wlan.mac 	"numGivenUp AC 3" 	0
scalar scenarioPRJP1.node[77].wlan.mac 	"numDropped AC 0" 	48
scalar scenarioPRJP1.node[77].wlan.mac 	"numDropped AC 1" 	0
scalar scenarioPRJP1.node[77].wlan.mac 	"numDropped AC 2" 	0
scalar scenarioPRJP1.node[77].wlan.mac 	"numDropped AC 3" 	0
scalar scenarioPRJP1.node[77].wlan.mac 	rcvdPkFromLL:count 	267012
attr interpolationmode  none
attr source  packetReceivedFromLower
attr title  "packets received from lower layer, count"
scalar scenarioPRJP1.node[77].wlan.mac 	rcvdPkFromLL:sum(packetBytes) 	70650078
attr interpolationmode  none
attr source  packetReceivedFromLower
attr title  "packets received from lower layer, sum(packetBytes)"
scalar scenarioPRJP1.node[77].wlan.mac 	sentDownPk:count 	53587
attr interpolationmode  none
attr source  packetSentToLower
attr title  "packets sent to lower layer, count"
scalar scenarioPRJP1.node[77].wlan.mac 	sentDownPk:sum(packetBytes) 	13986942
attr interpolationmode  none
attr source  packetSentToLower
attr title  "packets sent to lower layer, sum(packetBytes)"
scalar scenarioPRJP1.node[77].wlan.mac 	rcvdPkFromHL:count 	18771
attr interpolationmode  none
attr source  packetReceivedFromUpper
attr title  "packets received from higher layer, count"
scalar scenarioPRJP1.node[77].wlan.mac 	rcvdPkFromHL:sum(packetBytes) 	3681568
attr interpolationmode  none
attr source  packetReceivedFromUpper
attr title  "packets received from higher layer, sum(packetBytes)"
scalar scenarioPRJP1.node[77].wlan.mac 	passedUpPk:count 	38648
attr interpolationmode  none
attr source  packetSentToUpper
attr title  "packets passed to higher layer, count"
scalar scenarioPRJP1.node[77].wlan.mac 	passedUpPk:sum(packetBytes) 	3794636
attr interpolationmode  none
attr source  packetSentToUpper
attr title  "packets passed to higher layer, sum(packetBytes)"
statistic scenarioPRJP1.node[77].wlan.radio 	radioChannel:histogram
field count 1
field mean 3
field stddev nan
field sum 3
field sqrsum 9
field min 3
field max 3
attr interpolationmode  sample-hold
attr source  radioChannelChanged
attr title  "Radio channel, histogram"
bin	-INF	0
bin	2	0
bin	3	1
bin	4	0
scalar scenarioPRJP1.node[77].wlan.radio 	transmissionState:count 	214348
attr interpolationmode  sample-hold
attr source  transmissionStateChanged
attr title  "Radio transmission state, count"
scalar scenarioPRJP1.node[77].wlan.radio 	receptionState:count 	663410
attr interpolationmode  sample-hold
attr source  receptionStateChanged
attr title  "Radio reception state, count"
scalar scenarioPRJP1.node[77].wlan.radio 	radioMode:count 	107176
attr interpolationmode  sample-hold
attr source  radioModeChanged
attr title  "Radio mode, count"
statistic scenarioPRJP1.node[77].wlan.radio 	symbolErrorRate:histogram
field count 0
field mean nan
field stddev nan
field sum 0
field sqrsum 0
field min nan
field max nan
attr source  symbolErrorRate
attr title  "Symbol error rate, histogram"
bin	-INF	0
bin	-0.5	0
bin	-0.46666666666667	0
bin	-0.43333333333333	0
bin	-0.4	0
bin	-0.36666666666667	0
bin	-0.33333333333333	0
bin	-0.3	0
bin	-0.26666666666667	0
bin	-0.23333333333333	0
bin	-0.2	0
bin	-0.16666666666667	0
bin	-0.13333333333333	0
bin	-0.1	0
bin	-0.066666666666667	0
bin	-0.033333333333333	0
bin	0	0
bin	0.033333333333333	0
bin	0.066666666666667	0
bin	0.1	0
bin	0.13333333333333	0
bin	0.16666666666667	0
bin	0.2	0
bin	0.23333333333333	0
bin	0.26666666666667	0
bin	0.3	0
bin	0.33333333333333	0
bin	0.36666666666667	0
bin	0.4	0
bin	0.43333333333333	0
bin	0.46666666666667	0
bin	0.5	0
statistic scenarioPRJP1.node[77].wlan.radio 	bitErrorRate:histogram
field count 0
field mean nan
field stddev nan
field sum 0
field sqrsum 0
field min nan
field max nan
attr source  bitErrorRate
attr title  "Bit error rate, histogram"
bin	-INF	0
bin	-0.5	0
bin	-0.46666666666667	0
bin	-0.43333333333333	0
bin	-0.4	0
bin	-0.36666666666667	0
bin	-0.33333333333333	0
bin	-0.3	0
bin	-0.26666666666667	0
bin	-0.23333333333333	0
bin	-0.2	0
bin	-0.16666666666667	0
bin	-0.13333333333333	0
bin	-0.1	0
bin	-0.066666666666667	0
bin	-0.033333333333333	0
bin	0	0
bin	0.033333333333333	0
bin	0.066666666666667	0
bin	0.1	0
bin	0.13333333333333	0
bin	0.16666666666667	0
bin	0.2	0
bin	0.23333333333333	0
bin	0.26666666666667	0
bin	0.3	0
bin	0.33333333333333	0
bin	0.36666666666667	0
bin	0.4	0
bin	0.43333333333333	0
bin	0.46666666666667	0
bin	0.5	0
statistic scenarioPRJP1.node[77].wlan.radio 	packetErrorRate:histogram
field count 267012
field mean 0.23293742180699
field stddev 0.41366427947687
field sum 62197.086871529
field sqrsum 60178.453701994
field min 0
field max 1
attr source  packetErrorRate
attr title  "Packet error rate, histogram"
bin	-INF	0
bin	-0.49620235492092	0
bin	-0.43004204093147	0
bin	-0.36388172694201	0
bin	-0.29772141295255	0
bin	-0.2315610989631	0
bin	-0.16540078497364	0
bin	-0.099240470984184	0
bin	-0.033080156994728	196527
bin	0.033080156994728	3313
bin	0.099240470984184	1682
bin	0.16540078497364	1085
bin	0.2315610989631	859
bin	0.29772141295255	783
bin	0.36388172694201	622
bin	0.43004204093147	577
bin	0.49620235492092	528
bin	0.56236266891038	523
bin	0.62852298289983	539
bin	0.69468329688929	529
bin	0.76084361087875	552
bin	0.8270039248682	694
bin	0.89316423885766	1003
bin	0.95932455284712	57196
bin	1.0254848668366	0
bin	1.091645180826	0
bin	1.1578054948155	0
bin	1.2239658088049	0
bin	1.2901261227944	0
bin	1.3562864367839	0
bin	1.4224467507733	0
bin	1.4886070647628	0
statistic scenarioPRJP1.node[77].wlan.radio 	minSNIR:histogram
field count 267012
field mean 3117.8903946958
field stddev 34842.929187021
field sum 832514150.06852
field sqrsum 3.2675497592539e+14
field min 0.00018953935720937
field max 968393.96396339
attr source  minSNIR
attr title  "Min SNIR, histogram"
bin	-INF	0
bin	-807.66736162309	0
bin	-699.76472555546	0
bin	-591.86208948783	0
bin	-483.9594534202	0
bin	-376.05681735257	0
bin	-268.15418128494	0
bin	-160.25154521731	0
bin	-52.348909149678	169139
bin	55.553726917952	30168
bin	163.45636298558	14543
bin	271.35899905321	7388
bin	379.26163512084	4231
bin	487.16427118847	3435
bin	595.0669072561	2570
bin	702.96954332373	1991
bin	810.87217939136	1637
bin	918.77481545899	1381
bin	1026.6774515266	1286
bin	1134.5800875943	1100
bin	1242.4827236619	925
bin	1350.3853597295	946
bin	1458.2879957971	827
bin	1566.1906318648	800
bin	1674.0932679324	697
bin	1781.995904	640
bin	1889.8985400677	610
bin	1997.8011761353	558
bin	2105.7038122029	533
bin	2213.6064482706	546
bin	2321.5090843382	464
bin	2429.4117204058	20597
scalar scenarioPRJP1.node[77].lo0.lo 	droppedPkBitError:count 	0
attr interpolationmode  none
attr source  dropPkBitError
attr title  "packets dropped/bit error, count"
scalar scenarioPRJP1.node[77].lo0.lo 	droppedPkBitError:sum(packetBytes) 	0
attr interpolationmode  none
attr source  dropPkBitError
attr title  "packets dropped/bit error, sum(packetBytes)"
scalar scenarioPRJP1.node[77].lo0.lo 	rcvdPkFromHL:count 	92
attr interpolationmode  none
attr source  packetReceivedFromUpper
attr title  "packets received from higher layer, count"
scalar scenarioPRJP1.node[77].lo0.lo 	rcvdPkFromHL:sum(packetBytes) 	47840
attr interpolationmode  none
attr source  packetReceivedFromUpper
attr title  "packets received from higher layer, sum(packetBytes)"
scalar scenarioPRJP1.node[77].lo0.lo 	passedUpPk:count 	92
attr interpolationmode  none
attr source  packetSentToUpper
attr title  "packets passed to higher layer, count"
scalar scenarioPRJP1.node[77].lo0.lo 	passedUpPk:sum(packetBytes) 	47840
attr interpolationmode  none
attr source  packetSentToUpper
attr title  "packets passed to higher layer, sum(packetBytes)"
scalar scenarioPRJP1.node[94].app 	"Total sent" 	2609
scalar scenarioPRJP1.node[94].app 	"Total received" 	113
scalar scenarioPRJP1.node[94].app 	"Total deleted" 	2
scalar scenarioPRJP1.node[94].app 	dropPk:count 	2
attr interpolationmode  none
attr source  dropPk
attr title  "packets dropped, count"
scalar scenarioPRJP1.node[94].app 	dropPk:sum(packetBytes) 	1024
attr interpolationmode  none
attr source  dropPk
attr title  "packets dropped, sum(packetBytes)"
scalar scenarioPRJP1.node[94].app 	outOfOrderPk:count 	6
attr interpolationmode  none
attr source  outOfOrderPk
attr title  "packets received out of order, count"
scalar scenarioPRJP1.node[94].app 	outOfOrderPk:sum(packetBytes) 	3072
attr interpolationmode  none
attr source  outOfOrderPk
attr title  "packets received out of order, sum(packetBytes)"
scalar scenarioPRJP1.node[94].app 	rcvdPk:count 	113
attr interpolationmode  none
attr source  rcvdPk
attr title  "packets received, count"
scalar scenarioPRJP1.node[94].app 	rcvdPk:sum(packetBytes) 	57856
attr interpolationmode  none
attr source  rcvdPk
attr title  "packets received, sum(packetBytes)"
statistic scenarioPRJP1.node[94].app 	endToEndDelay:histogram
field count 113
field mean 0.88243998061181
field stddev 2.9641583766561
field sum 99.715717809135
field sqrsum 1072.0514428631
field min 0.002037448479
field max 18.113202982465
attr interpolationmode  none
attr source  messageAge(rcvdPk)
attr title  "delay, histogram"
attr unit  s
bin	-INF	0
bin	-9.053545318514	0
bin	-7.8461342829149	0
bin	-6.6387232473159	0
bin	-5.4313122117168	0
bin	-4.2239011761177	0
bin	-3.0164901405187	0
bin	-1.8090791049196	0
bin	-0.60166806932053	90
bin	0.60574296627853	12
bin	1.8131540018776	6
bin	3.0205650374767	1
bin	4.2279760730757	0
bin	5.4353871086748	0
bin	6.6427981442739	0
bin	7.8502091798729	0
bin	9.057620215472	0
bin	10.265031251071	0
bin	11.47244228667	0
bin	12.679853322269	1
bin	13.887264357868	0
bin	15.094675393467	1
bin	16.302086429066	1
bin	17.509497464665	1
bin	18.716908500265	0
bin	19.924319535864	0
bin	21.131730571463	0
bin	22.339141607062	0
bin	23.546552642661	0
bin	24.75396367826	0
bin	25.961374713859	0
bin	27.168785749458	0
scalar scenarioPRJP1.node[94].app 	sentPk:count 	2609
attr interpolationmode  none
attr source  sentPk
attr title  "packets sent, count"
scalar scenarioPRJP1.node[94].app 	sentPk:sum(packetBytes) 	1335808
attr interpolationmode  none
attr source  sentPk
attr title  "packets sent, sum(packetBytes)"
scalar scenarioPRJP1.node[94].udp 	droppedPkBadChecksum:count 	0
attr interpolationmode  none
attr title  "packets dropped (checksum error), count"
scalar scenarioPRJP1.node[94].udp 	droppedPkWrongPort:count 	0
attr interpolationmode  none
attr title  "packets dropped (wrong port), count"
scalar scenarioPRJP1.node[94].udp 	passedUpPk:count 	121
attr interpolationmode  none
attr title  "packets passed up, count"
scalar scenarioPRJP1.node[94].udp 	rcvdPk:count 	121
attr interpolationmode  none
attr source  rcvdPk
attr title  "packets received, count"
scalar scenarioPRJP1.node[94].udp 	rcvdPk:sum(packetBytes) 	62920
attr interpolationmode  none
attr source  rcvdPk
attr title  "packets received, sum(packetBytes)"
scalar scenarioPRJP1.node[94].udp 	sentPk:count 	2609
attr interpolationmode  none
attr source  sentPk
attr title  "packets sent, count"
scalar scenarioPRJP1.node[94].udp 	sentPk:sum(packetBytes) 	1356680
attr interpolationmode  none
attr source  sentPk
attr title  "packets sent, sum(packetBytes)"
scalar scenarioPRJP1.node[94].networkLayer.arp 	failedARPResolution:count 	103
attr title  "ARP failed resolutions, count"
scalar scenarioPRJP1.node[94].networkLayer.arp 	completedARPResolution:count 	2277
attr title  "ARP completed resolutions, count"
scalar scenarioPRJP1.node[94].networkLayer.arp 	initiatedARPResolution:count 	194
attr title  "ARP initiated resolutions, count"
scalar scenarioPRJP1.node[94].networkLayer.arp 	sentReply:count 	70
attr title  "ARP replies sent, count"
scalar scenarioPRJP1.node[94].networkLayer.arp 	sentReq:count 	442
attr title  "ARP request sent, count"
scalar scenarioPRJP1.node[94].mobility 	startTime 	9.8
scalar scenarioPRJP1.node[94].mobility 	totalTime 	940.2
scalar scenarioPRJP1.node[94].mobility 	stopTime 	950
scalar scenarioPRJP1.node[94].mobility 	minSpeed 	2.4761779406372e-13
scalar scenarioPRJP1.node[94].mobility 	maxSpeed 	19.782936680337
scalar scenarioPRJP1.node[94].mobility 	totalDistance 	9251.4583157204
scalar scenarioPRJP1.node[94].mobility 	totalCO2Emission 	2612.2057733581
scalar scenarioPRJP1.node[94].wlan.mgmt 	dataQueueLen:max 	12
attr interpolationmode  sample-hold
attr title  "data queue length, max"
scalar scenarioPRJP1.node[94].wlan.mgmt 	dataQueueLen:timeavg 	0.0010037894752031
attr interpolationmode  sample-hold
attr title  "data queue length, timeavg"
scalar scenarioPRJP1.node[94].wlan.mgmt 	dropPkByQueue:count 	0
attr interpolationmode  none
attr source  dropPkByQueue
attr title  "packets dropped by queue, count"
scalar scenarioPRJP1.node[94].wlan.mgmt 	dropPkByQueue:sum(packetBytes) 	0
attr interpolationmode  none
attr source  dropPkByQueue
attr title  "packets dropped by queue, sum(packetBytes)"
scalar scenarioPRJP1.node[94].wlan.mac 	"number of received packets" 	10978
scalar scenarioPRJP1.node[94].wlan.mac 	"number of collisions" 	92463
scalar scenarioPRJP1.node[94].wlan.mac 	"number of internal collisions" 	0
scalar scenarioPRJP1.node[94].wlan.mac 	"number of retry for AC 0" 	32458
scalar scenarioPRJP1.node[94].wlan.mac 	"number of retry for AC 1" 	0
scalar scenarioPRJP1.node[94].wlan.mac 	"number of retry for AC 2" 	0
scalar scenarioPRJP1.node[94].wlan.mac 	"number of retry for AC 3" 	0
scalar scenarioPRJP1.node[94].wlan.mac 	"sent and received bits" 	18219008
scalar scenarioPRJP1.node[94].wlan.mac 	"sent packet within AC 0" 	5608
scalar scenarioPRJP1.node[94].wlan.mac 	"sent packet within AC 1" 	0
scalar scenarioPRJP1.node[94].wlan.mac 	"sent packet within AC 2" 	0
scalar scenarioPRJP1.node[94].wlan.mac 	"sent packet within AC 3" 	0
scalar scenarioPRJP1.node[94].wlan.mac 	"sent in TXOP " 	0
scalar scenarioPRJP1.node[94].wlan.mac 	"sentWithoutRetry AC 0" 	4899
scalar scenarioPRJP1.node[94].wlan.mac 	"sentWithoutRetry AC 1" 	0
scalar scenarioPRJP1.node[94].wlan.mac 	"sentWithoutRetry AC 2" 	0
scalar scenarioPRJP1.node[94].wlan.mac 	"sentWithoutRetry AC 3" 	0
scalar scenarioPRJP1.node[94].wlan.mac 	"numGivenUp AC 0" 	5151
scalar scenarioPRJP1.node[94].wlan.mac 	"numGivenUp AC 1" 	0
scalar scenarioPRJP1.node[94].wlan.mac 	"numGivenUp AC 2" 	0
scalar scenarioPRJP1.node[94].wlan.mac 	"numGivenUp AC 3" 	0
scalar scenarioPRJP1.node[94].wlan.mac 	"numDropped AC 0" 	21
scalar scenarioPRJP1.node[94].wlan.mac 	"numDropped AC 1" 	0
scalar scenarioPRJP1.node[94].wlan.mac 	"numDropped AC 2" 	0
scalar scenarioPRJP1.node[94].wlan.mac 	"numDropped AC 3" 	0
scalar scenarioPRJP1.node[94].wlan.mac 	rcvdPkFromLL:count 	391936
attr interpolationmode  none
attr source  packetReceivedFromLower
attr title  "packets received from lower layer, count"
scalar scenarioPRJP1.node[94].wlan.mac 	rcvdPkFromLL:sum(packetBytes) 	105382124
attr interpolationmode  none
attr source  packetReceivedFromLower
attr title  "packets received from lower layer, sum(packetBytes)"
scalar scenarioPRJP1.node[94].wlan.mac 	sentDownPk:count 	62973
attr interpolationmode  none
attr source  packetSentToLower
attr title  "packets sent to lower layer, count"
scalar scenarioPRJP1.node[94].wlan.mac 	sentDownPk:sum(packetBytes) 	17396216
attr interpolationmode  none
attr source  packetSentToLower
attr title  "packets sent to lower layer, sum(packetBytes)"
scalar scenarioPRJP1.node[94].wlan.mac 	rcvdPkFromHL:count 	19559
attr interpolationmode  none
attr source  packetReceivedFromUpper
attr title  "packets received from higher layer, count"
scalar scenarioPRJP1.node[94].wlan.mac 	rcvdPkFromHL:sum(packetBytes) 	4326476
attr interpolationmode  none
attr source  packetReceivedFromUpper
attr title  "packets received from higher layer, sum(packetBytes)"
scalar scenarioPRJP1.node[94].wlan.mac 	passedUpPk:count 	42796
attr interpolationmode  none
attr source  packetSentToUpper
attr title  "packets passed to higher layer, count"
scalar scenarioPRJP1.node[94].wlan.mac 	passedUpPk:sum(packetBytes) 	4488704
attr interpolationmode  none
attr source  packetSentToUpper
attr title  "packets passed to higher layer, sum(packetBytes)"
statistic scenarioPRJP1.node[94].wlan.radio 	radioChannel:histogram
field count 1
field mean 3
field stddev nan
field sum 3
field sqrsum 9
field min 3
field max 3
attr interpolationmode  sample-hold
attr source  radioChannelChanged
attr title  "Radio channel, histogram"
bin	-INF	0
bin	2	0
bin	3	1
bin	4	0
scalar scenarioPRJP1.node[94].wlan.radio 	transmissionState:count 	251892
attr interpolationmode  sample-hold
attr source  transmissionStateChanged
attr title  "Radio transmission state, count"
scalar scenarioPRJP1.node[94].wlan.radio 	receptionState:count 	946765
attr interpolationmode  sample-hold
attr source  receptionStateChanged
attr title  "Radio reception state, count"
scalar scenarioPRJP1.node[94].wlan.radio 	radioMode:count 	125948
attr interpolationmode  sample-hold
attr source  radioModeChanged
attr title  "Radio mode, count"
statistic scenarioPRJP1.node[94].wlan.radio 	symbolErrorRate:histogram
field count 0
field mean nan
field stddev nan
field sum 0
field sqrsum 0
field min nan
field max nan
attr source  symbolErrorRate
attr title  "Symbol error rate, histogram"
bin	-INF	0
bin	-0.5	0
bin	-0.46666666666667	0
bin	-0.43333333333333	0
bin	-0.4	0
bin	-0.36666666666667	0
bin	-0.33333333333333	0
bin	-0.3	0
bin	-0.26666666666667	0
bin	-0.23333333333333	0
bin	-0.2	0
bin	-0.16666666666667	0
bin	-0.13333333333333	0
bin	-0.1	0
bin	-0.066666666666667	0
bin	-0.033333333333333	0
bin	0	0
bin	0.033333333333333	0
bin	0.066666666666667	0
bin	0.1	0
bin	0.13333333333333	0
bin	0.16666666666667	0
bin	0.2	0
bin	0.23333333333333	0
bin	0.26666666666667	0
bin	0.3	0
bin	0.33333333333333	0
bin	0.36666666666667	0
bin	0.4	0
bin	0.43333333333333	0
bin	0.46666666666667	0
bin	0.5	0
statistic scenarioPRJP1.node[94].wlan.radio 	bitErrorRate:histogram
field count 0
field mean nan
field stddev nan
field sum 0
field sqrsum 0
field min nan
field max nan
attr source  bitErrorRate
attr title  "Bit error rate, histogram"
bin	-INF	0
bin	-0.5	0
bin	-0.46666666666667	0
bin	-0.43333333333333	0
bin	-0.4	0
bin	-0.36666666666667	0
bin	-0.33333333333333	0
bin	-0.3	0
bin	-0.26666666666667	0
bin	-0.23333333333333	0
bin	-0.2	0
bin	-0.16666666666667	0
bin	-0.13333333333333	0
bin	-0.1	0
bin	-0.066666666666667	0
bin	-0.033333333333333	0
bin	0	0
bin	0.033333333333333	0
bin	0.066666666666667	0
bin	0.1	0
bin	0.13333333333333	0
bin	0.16666666666667	0
bin	0.2	0
bin	0.23333333333333	0
bin	0.26666666666667	0
bin	0.3	0
bin	0.33333333333333	0
bin	0.36666666666667	0
bin	0.4	0
bin	0.43333333333333	0
bin	0.46666666666667	0
bin	0.5	0
statistic scenarioPRJP1.node[94].wlan.radio 	packetErrorRate:histogram
field count 391936
field mean 0.22352225416574
field stddev 0.40860464487352
field sum 87606.418208705
field sqrsum 85018.572101657
field min 0
field max 1
attr source  packetErrorRate
attr title  "Packet error rate, histogram"
bin	-INF	0
bin	-0.5	0
bin	-0.43333333333333	0
bin	-0.36666666666667	0
bin	-0.3	0
bin	-0.23333333333333	0
bin	-0.16666666666667	0
bin	-0.1	0
bin	-0.033333333333333	293680
bin	0.033333333333333	4417
bin	0.1	2048
bin	0.16666666666667	1376
bin	0.23333333333333	1137
bin	0.3	951
bin	0.36666666666667	839
bin	0.43333333333333	732
bin	0.5	679
bin	0.56666666666667	653
bin	0.63333333333333	690
bin	0.7	732
bin	0.76666666666667	744
bin	0.83333333333333	869
bin	0.9	1405
bin	0.96666666666667	80984
bin	1.0333333333333	0
bin	1.1	0
bin	1.1666666666667	0
bin	1.2333333333333	0
bin	1.3	0
bin	1.3666666666667	0
bin	1.4333333333333	0
bin	1.5	0
statistic scenarioPRJP1.node[94].wlan.radio 	minSNIR:histogram
field count 391936
field mean 3365.0676009762
field stddev 35689.166553965
field sum 1318891135.2562
field sqrsum 5.03652277101e+14
field min 0.00016802361986979
field max 753239.71923443
attr source  minSNIR
attr title  "Min SNIR, histogram"
bin	-INF	0
bin	-1851.9145730284	0
bin	-1604.8603528679	0
bin	-1357.8061327075	0
bin	-1110.7519125471	0
bin	-863.69769238667	0
bin	-616.64347222625	0
bin	-369.58925206583	0
bin	-122.53503190541	264145
bin	124.51918825501	50838
bin	371.57340841543	14718
bin	618.62762857585	8131
bin	865.68184873627	5480
bin	1112.7360688967	4344
bin	1359.7902890571	3393
bin	1606.8445092175	2783
bin	1853.898729378	2386
bin	2100.9529495384	2102
bin	2348.0071696988	1847
bin	2595.0613898592	1675
bin	2842.1156100196	1445
bin	3089.1698301801	1253
bin	3336.2240503405	1220
bin	3583.2782705009	1042
bin	3830.3324906613	1009
bin	4077.3867108217	933
bin	4324.4409309822	865
bin	4571.4951511426	778
bin	4818.549371303	767
bin	5065.6035914634	696
bin	5312.6578116238	640
bin	5559.7120317843	19446
scalar scenarioPRJP1.node[94].lo0.lo 	droppedPkBitError:count 	0
attr interpolationmode  none
attr source  dropPkBitError
attr title  "packets dropped/bit error, count"
scalar scenarioPRJP1.node[94].lo0.lo 	droppedPkBitError:sum(packetBytes) 	0
attr interpolationmode  none
attr source  dropPkBitError
attr title  "packets dropped/bit error, sum(packetBytes)"
scalar scenarioPRJP1.node[94].lo0.lo 	rcvdPkFromHL:count 	121
attr interpolationmode  none
attr source  packetReceivedFromUpper
attr title  "packets received from higher layer, count"
scalar scenarioPRJP1.node[94].lo0.lo 	rcvdPkFromHL:sum(packetBytes) 	62920
attr interpolationmode  none
attr source  packetReceivedFromUpper
attr title  "packets received from higher layer, sum(packetBytes)"
scalar scenarioPRJP1.node[94].lo0.lo 	passedUpPk:count 	121
attr interpolationmode  none
attr source  packetSentToUpper
attr title  "packets passed to higher layer, count"
scalar scenarioPRJP1.node[94].lo0.lo 	passedUpPk:sum(packetBytes) 	62920
attr interpolationmode  none
attr source  packetSentToUpper
attr title  "packets passed to higher layer, sum(packetBytes)"
scalar scenarioPRJP1.node[1].app 	"Total sent" 	2609
scalar scenarioPRJP1.node[1].app 	"Total received" 	110
scalar scenarioPRJP1.node[1].app 	"Total deleted" 	2
scalar scenarioPRJP1.node[1].app 	dropPk:count 	2
attr interpolationmode  none
attr source  dropPk
attr title  "packets dropped, count"
scalar scenarioPRJP1.node[1].app 	dropPk:sum(packetBytes) 	1024
attr interpolationmode  none
attr source  dropPk
attr title  "packets dropped, sum(packetBytes)"
scalar scenarioPRJP1.node[1].app 	outOfOrderPk:count 	7
attr interpolationmode  none
attr source  outOfOrderPk
attr title  "packets received out of order, count"
scalar scenarioPRJP1.node[1].app 	outOfOrderPk:sum(packetBytes) 	3584
attr interpolationmode  none
attr source  outOfOrderPk
attr title  "packets received out of order, sum(packetBytes)"
scalar scenarioPRJP1.node[1].app 	rcvdPk:count 	110
attr interpolationmode  none
attr source  rcvdPk
attr title  "packets received, count"
scalar scenarioPRJP1.node[1].app 	rcvdPk:sum(packetBytes) 	56320
attr interpolationmode  none
attr source  rcvdPk
attr title  "packets received, sum(packetBytes)"
statistic scenarioPRJP1.node[1].app 	endToEndDelay:histogram
field count 110
field mean 1.2456353529424
field stddev 3.4077170100784
field sum 137.01988882367
field sqrsum 1436.4431566398
field min 0.000990038327
field max 16.741683595333
attr interpolationmode  none
attr source  messageAge(rcvdPk)
attr title  "delay, histogram"
attr unit  s
bin	-INF	0
bin	-8.369356740176	0
bin	-7.2533105030423	0
bin	-6.1372642659085	0
bin	-5.0212180287748	0
bin	-3.9051717916411	0
bin	-2.7891255545073	0
bin	-1.6730793173736	0
bin	-0.55703308023987	85
bin	0.55901315689387	10
bin	1.6750593940276	2
bin	2.7911056311613	4
bin	3.9071518682951	1
bin	5.0231981054288	1
bin	6.1392443425625	0
bin	7.2552905796963	0
bin	8.37133681683	1
bin	9.4873830539637	0
bin	10.603429291097	1
bin	11.719475528231	0
bin	12.835521765365	3
bin	13.951568002499	0
bin	15.067614239632	0
bin	16.183660476766	2
bin	17.2997067139	0
bin	18.415752951034	0
bin	19.531799188167	0
bin	20.647845425301	0
bin	21.763891662435	0
bin	22.879937899569	0
bin	23.995984136702	0
bin	25.112030373836	0
scalar scenarioPRJP1.node[1].app 	sentPk:count 	2609
attr interpolationmode  none
attr source  sentPk
attr title  "packets sent, count"
scalar scenarioPRJP1.node[1].app 	sentPk:sum(packetBytes) 	1335808
attr interpolationmode  none
attr source  sentPk
attr title  "packets sent, sum(packetBytes)"
scalar scenarioPRJP1.node[1].udp 	droppedPkBadChecksum:count 	0
attr interpolationmode  none
attr title  "packets dropped (checksum error), count"
scalar scenarioPRJP1.node[1].udp 	droppedPkWrongPort:count 	0
attr interpolationmode  none
attr title  "packets dropped (wrong port), count"
scalar scenarioPRJP1.node[1].udp 	passedUpPk:count 	119
attr interpolationmode  none
attr title  "packets passed up, count"
scalar scenarioPRJP1.node[1].udp 	rcvdPk:count 	119
attr interpolationmode  none
attr source  rcvdPk
attr title  "packets received, count"
scalar scenarioPRJP1.node[1].udp 	rcvdPk:sum(packetBytes) 	61880
attr interpolationmode  none
attr source  rcvdPk
attr title  "packets received, sum(packetBytes)"
scalar scenarioPRJP1.node[1].udp 	sentPk:count 	2609
attr interpolationmode  none
attr source  sentPk
attr title  "packets sent, count"
scalar scenarioPRJP1.node[1].udp 	sentPk:sum(packetBytes) 	1356680
attr interpolationmode  none
attr source  sentPk
attr title  "packets sent, sum(packetBytes)"
scalar scenarioPRJP1.node[1].networkLayer.arp 	failedARPResolution:count 	60
attr title  "ARP failed resolutions, count"
scalar scenarioPRJP1.node[1].networkLayer.arp 	completedARPResolution:count 	2439
attr title  "ARP completed resolutions, count"
scalar scenarioPRJP1.node[1].networkLayer.arp 	initiatedARPResolution:count 	139
attr title  "ARP initiated resolutions, count"
scalar scenarioPRJP1.node[1].networkLayer.arp 	sentReply:count 	71
attr title  "ARP replies sent, count"
scalar scenarioPRJP1.node[1].networkLayer.arp 	sentReq:count 	284
attr title  "ARP request sent, count"
scalar scenarioPRJP1.node[1].mobility 	startTime 	0.1
scalar scenarioPRJP1.node[1].mobility 	totalTime 	949.9
scalar scenarioPRJP1.node[1].mobility 	stopTime 	950
scalar scenarioPRJP1.node[1].mobility 	minSpeed 	2.4754790386877e-13
scalar scenarioPRJP1.node[1].mobility 	maxSpeed 	18.436198196301
scalar scenarioPRJP1.node[1].mobility 	totalDistance 	9588.0852298017
scalar scenarioPRJP1.node[1].mobility 	totalCO2Emission 	2696.2098379385
scalar scenarioPRJP1.node[1].wlan.mgmt 	dataQueueLen:max 	100
attr interpolationmode  sample-hold
attr title  "data queue length, max"
scalar scenarioPRJP1.node[1].wlan.mgmt 	dataQueueLen:timeavg 	0.41727802422031
attr interpolationmode  sample-hold
attr title  "data queue length, timeavg"
scalar scenarioPRJP1.node[1].wlan.mgmt 	dropPkByQueue:count 	24
attr interpolationmode  none
attr source  dropPkByQueue
attr title  "packets dropped by queue, count"
scalar scenarioPRJP1.node[1].wlan.mgmt 	dropPkByQueue:sum(packetBytes) 	5296
attr interpolationmode  none
attr source  dropPkByQueue
attr title  "packets dropped by queue, sum(packetBytes)"
scalar scenarioPRJP1.node[1].wlan.mac 	"number of received packets" 	11287
scalar scenarioPRJP1.node[1].wlan.mac 	"number of collisions" 	89374
scalar scenarioPRJP1.node[1].wlan.mac 	"number of internal collisions" 	0
scalar scenarioPRJP1.node[1].wlan.mac 	"number of retry for AC 0" 	31411
scalar scenarioPRJP1.node[1].wlan.mac 	"number of retry for AC 1" 	0
scalar scenarioPRJP1.node[1].wlan.mac 	"number of retry for AC 2" 	0
scalar scenarioPRJP1.node[1].wlan.mac 	"number of retry for AC 3" 	0
scalar scenarioPRJP1.node[1].wlan.mac 	"sent and received bits" 	18144832
scalar scenarioPRJP1.node[1].wlan.mac 	"sent packet within AC 0" 	5473
scalar scenarioPRJP1.node[1].wlan.mac 	"sent packet within AC 1" 	0
scalar scenarioPRJP1.node[1].wlan.mac 	"sent packet within AC 2" 	0
scalar scenarioPRJP1.node[1].wlan.mac 	"sent packet within AC 3" 	0
scalar scenarioPRJP1.node[1].wlan.mac 	"sent in TXOP " 	0
scalar scenarioPRJP1.node[1].wlan.mac 	"sentWithoutRetry AC 0" 	4834
scalar scenarioPRJP1.node[1].wlan.mac 	"sentWithoutRetry AC 1" 	0
scalar scenarioPRJP1.node[1].wlan.mac 	"sentWithoutRetry AC 2" 	0
scalar scenarioPRJP1.node[1].wlan.mac 	"sentWithoutRetry AC 3" 	0
scalar scenarioPRJP1.node[1].wlan.mac 	"numGivenUp AC 0" 	5007
scalar scenarioPRJP1.node[1].wlan.mac 	"numGivenUp AC 1" 	0
scalar scenarioPRJP1.node[1].wlan.mac 	"numGivenUp AC 2" 	0
scalar scenarioPRJP1.node[1].wlan.mac 	"numGivenUp AC 3" 	0
scalar scenarioPRJP1.node[1].wlan.mac 	"numDropped AC 0" 	683
scalar scenarioPRJP1.node[1].wlan.mac 	"numDropped AC 1" 	0
scalar scenarioPRJP1.node[1].wlan.mac 	"numDropped AC 2" 	0
scalar scenarioPRJP1.node[1].wlan.mac 	"numDropped AC 3" 	0
scalar scenarioPRJP1.node[1].wlan.mac 	rcvdPkFromLL:count 	377732
attr interpolationmode  none
attr source  packetReceivedFromLower
attr title  "packets received from lower layer, count"
scalar scenarioPRJP1.node[1].wlan.mac 	rcvdPkFromLL:sum(packetBytes) 	95110498
attr interpolationmode  none
attr source  packetReceivedFromLower
attr title  "packets received from lower layer, sum(packetBytes)"
scalar scenarioPRJP1.node[1].wlan.mac 	sentDownPk:count 	63392
attr interpolationmode  none
attr source  packetSentToLower
attr title  "packets sent to lower layer, count"
scalar scenarioPRJP1.node[1].wlan.mac 	sentDownPk:sum(packetBytes) 	17142658
attr interpolationmode  none
attr source  packetSentToLower
attr title  "packets sent to lower layer, sum(packetBytes)"
scalar scenarioPRJP1.node[1].wlan.mac 	rcvdPkFromHL:count 	21377
attr interpolationmode  none
attr source  packetReceivedFromUpper
attr title  "packets received from higher layer, count"
scalar scenarioPRJP1.node[1].wlan.mac 	rcvdPkFromHL:sum(packetBytes) 	4413132
attr interpolationmode  none
attr source  packetReceivedFromUpper
attr title  "packets received from higher layer, sum(packetBytes)"
scalar scenarioPRJP1.node[1].wlan.mac 	passedUpPk:count 	54603
attr interpolationmode  none
attr source  packetSentToUpper
attr title  "packets passed to higher layer, count"
scalar scenarioPRJP1.node[1].wlan.mac 	passedUpPk:sum(packetBytes) 	5275072
attr interpolationmode  none
attr source  packetSentToUpper
attr title  "packets passed to higher layer, sum(packetBytes)"
statistic scenarioPRJP1.node[1].wlan.radio 	radioChannel:histogram
field count 1
[...]
attr interpolationmode  none
attr source  packetSentToUpper
attr title  "packets passed to higher layer, count"
scalar scenarioPRJP1.node[76].wlan.mac 	passedUpPk:sum(packetBytes) 	3879732
attr interpolationmode  none
attr source  packetSentToUpper
attr title  "packets passed to higher layer, sum(packetBytes)"
statistic scenarioPRJP1.node[76].wlan.radio 	radioChannel:histogram
field count 1
field mean 3
field stddev nan
field sum 3
field sqrsum 9
field min 3
field max 3
attr interpolationmode  sample-hold
attr source  radioChannelChanged
attr title  "Radio channel, histogram"
bin	-INF	0
bin	2	0
bin	3	1
bin	4	0
scalar scenarioPRJP1.node[76].wlan.radio 	transmissionState:count 	223512
attr interpolationmode  sample-hold
attr source  transmissionStateChanged
attr title  "Radio transmission state, count"
scalar scenarioPRJP1.node[76].wlan.radio 	receptionState:count 	712717
attr interpolationmode  sample-hold
attr source  receptionStateChanged
attr title  "Radio reception state, count"
scalar scenarioPRJP1.node[76].wlan.radio 	radioMode:count 	111758
attr interpolationmode  sample-hold
attr source  radioModeChanged
attr title  "Radio mode, count"
statistic scenarioPRJP1.node[76].wlan.radio 	symbolErrorRate:histogram
field count 0
field mean nan
field stddev nan
field sum 0
field sqrsum 0
field min nan
field max nan
attr source  symbolErrorRate
attr title  "Symbol error rate, histogram"
bin	-INF	0
bin	-0.5	0
bin	-0.46666666666667	0
bin	-0.43333333333333	0
bin	-0.4	0
bin	-0.36666666666667	0
bin	-0.33333333333333	0
bin	-0.3	0
bin	-0.26666666666667	0
bin	-0.23333333333333	0
bin	-0.2	0
bin	-0.16666666666667	0
bin	-0.13333333333333	0
bin	-0.1	0
bin	-0.066666666666667	0
bin	-0.033333333333333	0
bin	0	0
bin	0.033333333333333	0
bin	0.066666666666667	0
bin	0.1	0
bin	0.13333333333333	0
bin	0.16666666666667	0
bin	0.2	0
bin	0.23333333333333	0
bin	0.26666666666667	0
bin	0.3	0
bin	0.33333333333333	0
bin	0.36666666666667	0
bin	0.4	0
bin	0.43333333333333	0
bin	0.46666666666667	0
bin	0.5	0
statistic scenarioPRJP1.node[76].wlan.radio 	bitErrorRate:histogram
field count 0
field mean nan
field stddev nan
field sum 0
field sqrsum 0
field min nan
field max nan
attr source  bitErrorRate
attr title  "Bit error rate, histogram"
bin	-INF	0
bin	-0.5	0
bin	-0.46666666666667	0
bin	-0.43333333333333	0
bin	-0.4	0
bin	-0.36666666666667	0
bin	-0.33333333333333	0
bin	-0.3	0
bin	-0.26666666666667	0
bin	-0.23333333333333	0
bin	-0.2	0
bin	-0.16666666666667	0
bin	-0.13333333333333	0
bin	-0.1	0
bin	-0.066666666666667	0
bin	-0.033333333333333	0
bin	0	0
bin	0.033333333333333	0
bin	0.066666666666667	0
bin	0.1	0
bin	0.13333333333333	0
bin	0.16666666666667	0
bin	0.2	0
bin	0.23333333333333	0
bin	0.26666666666667	0
bin	0.3	0
bin	0.33333333333333	0
bin	0.36666666666667	0
bin	0.4	0
bin	0.43333333333333	0
bin	0.46666666666667	0
bin	0.5	0
statistic scenarioPRJP1.node[76].wlan.radio 	packetErrorRate:histogram
field count 289733
field mean 0.2261306554778
field stddev 0.40912944104992
field sum 65517.51320355
field sqrsum 63312.859381726
field min 0
field max 1
attr source  packetErrorRate
attr title  "Packet error rate, histogram"
bin	-INF	0
bin	-0.5	0
bin	-0.43333333333333	0
bin	-0.36666666666667	0
bin	-0.3	0
bin	-0.23333333333333	0
bin	-0.16666666666667	0
bin	-0.1	0
bin	-0.033333333333333	215153
bin	0.033333333333333	3722
bin	0.1	1723
bin	0.16666666666667	1201
bin	0.23333333333333	1038
bin	0.3	785
bin	0.36666666666667	669
bin	0.43333333333333	610
bin	0.5	611
bin	0.56666666666667	565
bin	0.63333333333333	605
bin	0.7	599
bin	0.76666666666667	600
bin	0.83333333333333	801
bin	0.9	1153
bin	0.96666666666667	59898
bin	1.0333333333333	0
bin	1.1	0
bin	1.1666666666667	0
bin	1.2333333333333	0
bin	1.3	0
bin	1.3666666666667	0
bin	1.4333333333333	0
bin	1.5	0
statistic scenarioPRJP1.node[76].wlan.radio 	minSNIR:histogram
field count 289733
field mean 3352.8628534232
field stddev 36451.908098053
field sum 971435013.11085
field sqrsum 3.8823605077688e+14
field min 0.00017104003362541
field max 942479.84935461
attr source  minSNIR
attr title  "Min SNIR, histogram"
bin	-INF	0
bin	-6128.641831034	0
bin	-5311.3170623575	0
bin	-4493.992293681	0
bin	-3676.6675250044	0
bin	-2859.3427563279	0
bin	-2042.0179876514	0
bin	-1224.6932189748	0
bin	-407.36845029829	244213
bin	409.95631837824	17310
bin	1227.2810870548	5851
bin	2044.6058557313	3508
bin	2861.9306244078	2758
bin	3679.2553930844	2082
bin	4496.5801617609	1690
bin	5313.9049304375	1139
bin	6131.229699114	943
bin	6948.5544677905	774
bin	7765.8792364671	628
bin	8583.2040051436	581
bin	9400.5287738201	511
bin	10217.853542497	437
bin	11035.178311173	403
bin	11852.50307985	347
bin	12669.827848526	419
bin	13487.152617203	185
bin	14304.477385879	178
bin	15121.802154556	157
bin	15939.126923232	225
bin	16756.451691909	139
bin	17573.776460585	128
bin	18391.101229262	5127
scalar scenarioPRJP1.node[76].lo0.lo 	droppedPkBitError:count 	0
attr interpolationmode  none
attr source  dropPkBitError
attr title  "packets dropped/bit error, count"
scalar scenarioPRJP1.node[76].lo0.lo 	droppedPkBitError:sum(packetBytes) 	0
attr interpolationmode  none
attr source  dropPkBitError
attr title  "packets dropped/bit error, sum(packetBytes)"
scalar scenarioPRJP1.node[76].lo0.lo 	rcvdPkFromHL:count 	109
attr interpolationmode  none
attr source  packetReceivedFromUpper
attr title  "packets received from higher layer, count"
scalar scenarioPRJP1.node[76].lo0.lo 	rcvdPkFromHL:sum(packetBytes) 	56680
attr interpolationmode  none
attr source  packetReceivedFromUpper
attr title  "packets received from higher layer, sum(packetBytes)"
scalar scenarioPRJP1.node[76].lo0.lo 	passedUpPk:count 	109
attr interpolationmode  none
attr source  packetSentToUpper
attr title  "packets passed to higher layer, count"
scalar scenarioPRJP1.node[76].lo0.lo 	passedUpPk:sum(packetBytes) 	56680
attr interpolationmode  none
attr source  packetSentToUpper
attr title  "packets passed to higher layer, sum(packetBytes)"
scalar scenarioPRJP1.node[99].app 	"Total sent" 	2619
scalar scenarioPRJP1.node[99].app 	"Total received" 	92
scalar scenarioPRJP1.node[99].app 	"Total deleted" 	1
scalar scenarioPRJP1.node[99].app 	dropPk:count 	1
attr interpolationmode  none
attr source  dropPk
attr title  "packets dropped, count"
scalar scenarioPRJP1.node[99].app 	dropPk:sum(packetBytes) 	512
attr interpolationmode  none
attr source  dropPk
attr title  "packets dropped, sum(packetBytes)"
scalar scenarioPRJP1.node[99].app 	outOfOrderPk:count 	2
attr interpolationmode  none
attr source  outOfOrderPk
attr title  "packets received out of order, count"
scalar scenarioPRJP1.node[99].app 	outOfOrderPk:sum(packetBytes) 	1024
attr interpolationmode  none
attr source  outOfOrderPk
attr title  "packets received out of order, sum(packetBytes)"
scalar scenarioPRJP1.node[99].app 	rcvdPk:count 	92
attr interpolationmode  none
attr source  rcvdPk
attr title  "packets received, count"
scalar scenarioPRJP1.node[99].app 	rcvdPk:sum(packetBytes) 	47104
attr interpolationmode  none
attr source  rcvdPk
attr title  "packets received, sum(packetBytes)"
statistic scenarioPRJP1.node[99].app 	endToEndDelay:histogram
field count 92
field mean 0.81128145722557
field stddev 2.1241412519072
field sum 74.637894064752
field sqrsum 471.142160744
field min 0.000956354971
field max 15.908928902766
attr interpolationmode  none
attr source  messageAge(rcvdPk)
attr title  "delay, histogram"
attr unit  s
bin	-INF	0
bin	-7.9530299189265	0
bin	-6.8924984157402	0
bin	-5.8319669125538	0
bin	-4.7714354093675	0
bin	-3.7109039061812	0
bin	-2.6503724029948	0
bin	-1.5898408998085	0
bin	-0.52930939662217	66
bin	0.53122210656417	11
bin	1.5917536097505	11
bin	2.6522851129368	0
bin	3.7128166161232	0
bin	4.7733481193095	1
bin	5.8338796224958	1
bin	6.8944111256822	0
bin	7.9549426288685	0
bin	9.0154741320548	1
bin	10.076005635241	0
bin	11.136537138427	0
bin	12.197068641614	0
bin	13.2576001448	0
bin	14.318131647987	0
bin	15.378663151173	1
bin	16.439194654359	0
bin	17.499726157545	0
bin	18.560257660732	0
bin	19.620789163918	0
bin	20.681320667105	0
bin	21.741852170291	0
bin	22.802383673477	0
bin	23.862915176663	0
scalar scenarioPRJP1.node[99].app 	sentPk:count 	2619
attr interpolationmode  none
attr source  sentPk
attr title  "packets sent, count"
scalar scenarioPRJP1.node[99].app 	sentPk:sum(packetBytes) 	1340928
attr interpolationmode  none
attr source  sentPk
attr title  "packets sent, sum(packetBytes)"
scalar scenarioPRJP1.node[99].udp 	droppedPkBadChecksum:count 	0
attr interpolationmode  none
attr title  "packets dropped (checksum error), count"
scalar scenarioPRJP1.node[99].udp 	droppedPkWrongPort:count 	0
attr interpolationmode  none
attr title  "packets dropped (wrong port), count"
scalar scenarioPRJP1.node[99].udp 	passedUpPk:count 	95
attr interpolationmode  none
attr title  "packets passed up, count"
scalar scenarioPRJP1.node[99].udp 	rcvdPk:count 	95
attr interpolationmode  none
attr source  rcvdPk
attr title  "packets received, count"
scalar scenarioPRJP1.node[99].udp 	rcvdPk:sum(packetBytes) 	49400
attr interpolationmode  none
attr source  rcvdPk
attr title  "packets received, sum(packetBytes)"
scalar scenarioPRJP1.node[99].udp 	sentPk:count 	2619
attr interpolationmode  none
attr source  sentPk
attr title  "packets sent, count"
scalar scenarioPRJP1.node[99].udp 	sentPk:sum(packetBytes) 	1361880
attr interpolationmode  none
attr source  sentPk
attr title  "packets sent, sum(packetBytes)"
scalar scenarioPRJP1.node[99].networkLayer.arp 	failedARPResolution:count 	84
attr title  "ARP failed resolutions, count"
scalar scenarioPRJP1.node[99].networkLayer.arp 	completedARPResolution:count 	1690
attr title  "ARP completed resolutions, count"
scalar scenarioPRJP1.node[99].networkLayer.arp 	initiatedARPResolution:count 	176
attr title  "ARP initiated resolutions, count"
scalar scenarioPRJP1.node[99].networkLayer.arp 	sentReply:count 	81
attr title  "ARP replies sent, count"
scalar scenarioPRJP1.node[99].networkLayer.arp 	sentReq:count 	381
attr title  "ARP request sent, count"
scalar scenarioPRJP1.node[99].mobility 	startTime 	9.8
scalar scenarioPRJP1.node[99].mobility 	totalTime 	940.2
scalar scenarioPRJP1.node[99].mobility 	stopTime 	950
scalar scenarioPRJP1.node[99].mobility 	minSpeed 	2.4755907898817e-13
scalar scenarioPRJP1.node[99].mobility 	maxSpeed 	21.671981669346
scalar scenarioPRJP1.node[99].mobility 	totalDistance 	11157.11520335
scalar scenarioPRJP1.node[99].mobility 	totalCO2Emission 	3048.7601561799
scalar scenarioPRJP1.node[99].wlan.mgmt 	dataQueueLen:max 	5
attr interpolationmode  sample-hold
attr title  "data queue length, max"
scalar scenarioPRJP1.node[99].wlan.mgmt 	dataQueueLen:timeavg 	2.1473293756648e-06
attr interpolationmode  sample-hold
attr title  "data queue length, timeavg"
scalar scenarioPRJP1.node[99].wlan.mgmt 	dropPkByQueue:count 	0
attr interpolationmode  none
attr source  dropPkByQueue
attr title  "packets dropped by queue, count"
scalar scenarioPRJP1.node[99].wlan.mgmt 	dropPkByQueue:sum(packetBytes) 	0
attr interpolationmode  none
attr source  dropPkByQueue
attr title  "packets dropped by queue, sum(packetBytes)"
scalar scenarioPRJP1.node[99].wlan.mac 	"number of received packets" 	10076
scalar scenarioPRJP1.node[99].wlan.mac 	"number of collisions" 	77230
scalar scenarioPRJP1.node[99].wlan.mac 	"number of internal collisions" 	0
scalar scenarioPRJP1.node[99].wlan.mac 	"number of retry for AC 0" 	30284
scalar scenarioPRJP1.node[99].wlan.mac 	"number of retry for AC 1" 	0
scalar scenarioPRJP1.node[99].wlan.mac 	"number of retry for AC 2" 	0
scalar scenarioPRJP1.node[99].wlan.mac 	"number of retry for AC 3" 	0
scalar scenarioPRJP1.node[99].wlan.mac 	"sent and received bits" 	15636288
scalar scenarioPRJP1.node[99].wlan.mac 	"sent packet within AC 0" 	4361
scalar scenarioPRJP1.node[99].wlan.mac 	"sent packet within AC 1" 	0
scalar scenarioPRJP1.node[99].wlan.mac 	"sent packet within AC 2" 	0
scalar scenarioPRJP1.node[99].wlan.mac 	"sent packet within AC 3" 	0
scalar scenarioPRJP1.node[99].wlan.mac 	"sent in TXOP " 	0
scalar scenarioPRJP1.node[99].wlan.mac 	"sentWithoutRetry AC 0" 	3844
scalar scenarioPRJP1.node[99].wlan.mac 	"sentWithoutRetry AC 1" 	0
scalar scenarioPRJP1.node[99].wlan.mac 	"sentWithoutRetry AC 2" 	0
scalar scenarioPRJP1.node[99].wlan.mac 	"sentWithoutRetry AC 3" 	0
scalar scenarioPRJP1.node[99].wlan.mac 	"numGivenUp AC 0" 	4853
scalar scenarioPRJP1.node[99].wlan.mac 	"numGivenUp AC 1" 	0
scalar scenarioPRJP1.node[99].wlan.mac 	"numGivenUp AC 2" 	0
scalar scenarioPRJP1.node[99].wlan.mac 	"numGivenUp AC 3" 	0
scalar scenarioPRJP1.node[99].wlan.mac 	"numDropped AC 0" 	6
scalar scenarioPRJP1.node[99].wlan.mac 	"numDropped AC 1" 	0
scalar scenarioPRJP1.node[99].wlan.mac 	"numDropped AC 2" 	0
scalar scenarioPRJP1.node[99].wlan.mac 	"numDropped AC 3" 	0
scalar scenarioPRJP1.node[99].wlan.mac 	rcvdPkFromLL:count 	309675
attr interpolationmode  none
attr source  packetReceivedFromLower
attr title  "packets received from lower layer, count"
scalar scenarioPRJP1.node[99].wlan.mac 	rcvdPkFromLL:sum(packetBytes) 	82456786
attr interpolationmode  none
attr source  packetReceivedFromLower
attr title  "packets received from lower layer, sum(packetBytes)"
scalar scenarioPRJP1.node[99].wlan.mac 	sentDownPk:count 	59064
attr interpolationmode  none
attr source  packetSentToLower
attr title  "packets sent to lower layer, count"
scalar scenarioPRJP1.node[99].wlan.mac 	sentDownPk:sum(packetBytes) 	16306960
attr interpolationmode  none
attr source  packetSentToLower
attr title  "packets sent to lower layer, sum(packetBytes)"
scalar scenarioPRJP1.node[99].wlan.mac 	rcvdPkFromHL:count 	18710
attr interpolationmode  none
attr source  packetReceivedFromUpper
attr title  "packets received from higher layer, count"
scalar scenarioPRJP1.node[99].wlan.mac 	rcvdPkFromHL:sum(packetBytes) 	3907668
attr interpolationmode  none
attr source  packetReceivedFromUpper
attr title  "packets received from higher layer, sum(packetBytes)"
scalar scenarioPRJP1.node[99].wlan.mac 	passedUpPk:count 	38223
attr interpolationmode  none
attr source  packetSentToUpper
attr title  "packets passed to higher layer, count"
scalar scenarioPRJP1.node[99].wlan.mac 	passedUpPk:sum(packetBytes) 	3912288
attr interpolationmode  none
attr source  packetSentToUpper
attr title  "packets passed to higher layer, sum(packetBytes)"
statistic scenarioPRJP1.node[99].wlan.radio 	radioChannel:histogram
field count 1
field mean 3
field stddev nan
field sum 3
field sqrsum 9
field min 3
field max 3
attr interpolationmode  sample-hold
attr source  radioChannelChanged
attr title  "Radio channel, histogram"
bin	-INF	0
bin	2	0
bin	3	1
bin	4	0
scalar scenarioPRJP1.node[99].wlan.radio 	transmissionState:count 	236256
attr interpolationmode  sample-hold
attr source  transmissionStateChanged
attr title  "Radio transmission state, count"
scalar scenarioPRJP1.node[99].wlan.radio 	receptionState:count 	762249
attr interpolationmode  sample-hold
attr source  receptionStateChanged
attr title  "Radio reception state, count"
scalar scenarioPRJP1.node[99].wlan.radio 	radioMode:count 	118130
attr interpolationmode  sample-hold
attr source  radioModeChanged
attr title  "Radio mode, count"
statistic scenarioPRJP1.node[99].wlan.radio 	symbolErrorRate:histogram
field count 0
field mean nan
field stddev nan
field sum 0
field sqrsum 0
field min nan
field max nan
attr source  symbolErrorRate
attr title  "Symbol error rate, histogram"
bin	-INF	0
bin	-0.5	0
bin	-0.46666666666667	0
bin	-0.43333333333333	0
bin	-0.4	0
bin	-0.36666666666667	0
bin	-0.33333333333333	0
bin	-0.3	0
bin	-0.26666666666667	0
bin	-0.23333333333333	0
bin	-0.2	0
bin	-0.16666666666667	0
bin	-0.13333333333333	0
bin	-0.1	0
bin	-0.066666666666667	0
bin	-0.033333333333333	0
bin	0	0
bin	0.033333333333333	0
bin	0.066666666666667	0
bin	0.1	0
bin	0.13333333333333	0
bin	0.16666666666667	0
bin	0.2	0
bin	0.23333333333333	0
bin	0.26666666666667	0
bin	0.3	0
bin	0.33333333333333	0
bin	0.36666666666667	0
bin	0.4	0
bin	0.43333333333333	0
bin	0.46666666666667	0
bin	0.5	0
statistic scenarioPRJP1.node[99].wlan.radio 	bitErrorRate:histogram
field count 0
field mean nan
field stddev nan
field sum 0
field sqrsum 0
field min nan
field max nan
attr source  bitErrorRate
attr title  "Bit error rate, histogram"
bin	-INF	0
bin	-0.5	0
bin	-0.46666666666667	0
bin	-0.43333333333333	0
bin	-0.4	0
bin	-0.36666666666667	0
bin	-0.33333333333333	0
bin	-0.3	0
bin	-0.26666666666667	0
bin	-0.23333333333333	0
bin	-0.2	0
bin	-0.16666666666667	0
bin	-0.13333333333333	0
bin	-0.1	0
bin	-0.066666666666667	0
bin	-0.033333333333333	0
bin	0	0
bin	0.033333333333333	0
bin	0.066666666666667	0
bin	0.1	0
bin	0.13333333333333	0
bin	0.16666666666667	0
bin	0.2	0
bin	0.23333333333333	0
bin	0.26666666666667	0
bin	0.3	0
bin	0.33333333333333	0
bin	0.36666666666667	0
bin	0.4	0
bin	0.43333333333333	0
bin	0.46666666666667	0
bin	0.5	0
statistic scenarioPRJP1.node[99].wlan.radio 	packetErrorRate:histogram
field count 309675
field mean 0.23525609796747
field stddev 0.4149053173833
field sum 72852.932138077
field sqrsum 70448.367748402
field min 0
field max 1
attr source  packetErrorRate
attr title  "Packet error rate, histogram"
bin	-INF	0
bin	-0.5	0
bin	-0.43333333333333	0
bin	-0.36666666666667	0
bin	-0.3	0
bin	-0.23333333333333	0
bin	-0.16666666666667	0
bin	-0.1	0
bin	-0.033333333333333	226980
bin	0.033333333333333	3972
bin	0.1	1922
bin	0.16666666666667	1344
bin	0.23333333333333	1046
bin	0.3	854
bin	0.36666666666667	776
bin	0.43333333333333	738
bin	0.5	641
bin	0.56666666666667	590
bin	0.63333333333333	638
bin	0.7	643
bin	0.76666666666667	696
bin	0.83333333333333	868
bin	0.9	1250
bin	0.96666666666667	66717
bin	1.0333333333333	0
bin	1.1	0
bin	1.1666666666667	0
bin	1.2333333333333	0
bin	1.3	0
bin	1.3666666666667	0
bin	1.4333333333333	0
bin	1.5	0
statistic scenarioPRJP1.node[99].wlan.radio 	minSNIR:histogram
field count 309675
field mean 1546.2863826064
field stddev 16943.081242986
field sum 478846235.53364
field sqrsum 89637929866708
field min 0.00019888049648241
field max 753239.71923424
attr source  minSNIR
attr title  "Min SNIR, histogram"
bin	-INF	0
bin	-3267.2692701016	0
bin	-2831.3530065055	0
bin	-2395.4367429095	0
bin	-1959.5204793135	0
bin	-1523.6042157175	0
bin	-1087.6879521214	0
bin	-651.77168852542	0
bin	-215.8554249294	249112
bin	220.06083866662	26872
bin	655.97710226265	8504
bin	1091.8933658587	4541
bin	1527.8096294547	2577
bin	1963.7258930507	1895
bin	2399.6421566467	1465
bin	2835.5584202428	1209
bin	3271.4746838388	980
bin	3707.3909474348	942
bin	4143.3072110308	693
bin	4579.2234746269	566
bin	5015.1397382229	533
bin	5451.0560018189	678
bin	5886.9722654149	360
bin	6322.8885290109	326
bin	6758.804792607	338
bin	7194.721056203	319
bin	7630.637319799	379
bin	8066.553583395	361
bin	8502.4698469911	203
bin	8938.3861105871	196
bin	9374.3023741831	210
bin	9810.2186377791	6416
scalar scenarioPRJP1.node[99].lo0.lo 	droppedPkBitError:count 	0
attr interpolationmode  none
attr source  dropPkBitError
attr title  "packets dropped/bit error, count"
scalar scenarioPRJP1.node[99].lo0.lo 	droppedPkBitError:sum(packetBytes) 	0
attr interpolationmode  none
attr source  dropPkBitError
attr title  "packets dropped/bit error, sum(packetBytes)"
scalar scenarioPRJP1.node[99].lo0.lo 	rcvdPkFromHL:count 	95
attr interpolationmode  none
attr source  packetReceivedFromUpper
attr title  "packets received from higher layer, count"
scalar scenarioPRJP1.node[99].lo0.lo 	rcvdPkFromHL:sum(packetBytes) 	49400
attr interpolationmode  none
attr source  packetReceivedFromUpper
attr title  "packets received from higher layer, sum(packetBytes)"
scalar scenarioPRJP1.node[99].lo0.lo 	passedUpPk:count 	95
attr interpolationmode  none
attr source  packetSentToUpper
attr title  "packets passed to higher layer, count"
scalar scenarioPRJP1.node[99].lo0.lo 	passedUpPk:sum(packetBytes) 	49400
attr interpolationmode  none
attr source  packetSentToUpper
attr title  "packets passed to higher layer, sum(packetBytes)"
