version 2
run DSRUU-TRG-100n-2-20150803-17:46:57-5658
attr configname DSRUU-TRG-100n
attr datetime 20150803-17:46:57
attr experiment DSRUU-TRG-100n
attr inifile omnetpp.ini
attr iterationvars ""
attr iterationvars2 $repetition=2
attr measurement ""
attr network Prj_Part1_propag.scenarioPRJP1
attr processid 5658
attr repetition 2
attr replication #2
attr resultdir results
attr runnumber 2
attr seedset 2

scalar scenarioPRJP1.node[41].app 	"Total sent" 	367
scalar scenarioPRJP1.node[41].app 	"Total received" 	31
scalar scenarioPRJP1.node[41].app 	"Total deleted" 	0
scalar scenarioPRJP1.node[41].app 	dropPk:count 	0
attr interpolationmode  none
attr source  dropPk
attr title  "packets dropped, count"
scalar scenarioPRJP1.node[41].app 	dropPk:sum(packetBytes) 	0
attr interpolationmode  none
attr source  dropPk
attr title  "packets dropped, sum(packetBytes)"
scalar scenarioPRJP1.node[41].app 	outOfOrderPk:count 	14
attr interpolationmode  none
attr source  outOfOrderPk
attr title  "packets received out of order, count"
scalar scenarioPRJP1.node[41].app 	outOfOrderPk:sum(packetBytes) 	7168
attr interpolationmode  none
attr source  outOfOrderPk
attr title  "packets received out of order, sum(packetBytes)"
scalar scenarioPRJP1.node[41].app 	rcvdPk:count 	31
attr interpolationmode  none
attr source  rcvdPk
attr title  "packets received, count"
scalar scenarioPRJP1.node[41].app 	rcvdPk:sum(packetBytes) 	15872
attr interpolationmode  none
attr source  rcvdPk
attr title  "packets received, sum(packetBytes)"
statistic scenarioPRJP1.node[41].app 	endToEndDelay:histogram
field count 31
field mean 1.9579735107478
field stddev 3.4168754374935
field sum 60.697178833181
field sqrsum 469.09460099287
field min 0.001003183801
field max 16.619365486926
attr interpolationmode  none
attr source  messageAge(rcvdPk)
attr title  "delay, histogram"
attr unit  s
bin	-INF	0
bin	-8.3081779677615	0
bin	-7.2002871475532	0
bin	-6.0923963273448	0
bin	-4.9845055071365	0
bin	-3.8766146869282	0
bin	-2.7687238667198	0
bin	-1.6608330465115	0
bin	-0.55294222630317	15
bin	0.55494859390517	6
bin	1.6628394141135	3
bin	2.7707302343218	1
bin	3.8786210545302	3
bin	4.9865118747385	1
bin	6.0944026949468	0
bin	7.2022935151552	0
bin	8.3101843353635	1
bin	9.4180751555718	0
bin	10.52596597578	0
bin	11.633856795988	0
bin	12.741747616197	0
bin	13.849638436405	0
bin	14.957529256613	0
bin	16.065420076822	1
bin	17.17331089703	0
bin	18.281201717238	0
bin	19.389092537447	0
bin	20.496983357655	0
bin	21.604874177864	0
bin	22.712764998072	0
bin	23.82065581828	0
bin	24.928546638488	0
scalar scenarioPRJP1.node[41].app 	sentPk:count 	367
attr interpolationmode  none
attr source  sentPk
attr title  "packets sent, count"
scalar scenarioPRJP1.node[41].app 	sentPk:sum(packetBytes) 	187904
attr interpolationmode  none
attr source  sentPk
attr title  "packets sent, sum(packetBytes)"
scalar scenarioPRJP1.node[41].udp 	droppedPkBadChecksum:count 	0
attr interpolationmode  none
attr title  "packets dropped (checksum error), count"
scalar scenarioPRJP1.node[41].udp 	droppedPkWrongPort:count 	0
attr interpolationmode  none
attr title  "packets dropped (wrong port), count"
scalar scenarioPRJP1.node[41].udp 	passedUpPk:count 	45
attr interpolationmode  none
attr title  "packets passed up, count"
scalar scenarioPRJP1.node[41].udp 	rcvdPk:count 	45
attr interpolationmode  none
attr source  rcvdPk
attr title  "packets received, count"
scalar scenarioPRJP1.node[41].udp 	rcvdPk:sum(packetBytes) 	23400
attr interpolationmode  none
attr source  rcvdPk
attr title  "packets received, sum(packetBytes)"
scalar scenarioPRJP1.node[41].udp 	sentPk:count 	367
attr interpolationmode  none
attr source  sentPk
attr title  "packets sent, count"
scalar scenarioPRJP1.node[41].udp 	sentPk:sum(packetBytes) 	190840
attr interpolationmode  none
attr source  sentPk
attr title  "packets sent, sum(packetBytes)"
scalar scenarioPRJP1.node[41].networkLayer.arp 	failedARPResolution:count 	4
attr title  "ARP failed resolutions, count"
scalar scenarioPRJP1.node[41].networkLayer.arp 	completedARPResolution:count 	142
attr title  "ARP completed resolutions, count"
scalar scenarioPRJP1.node[41].networkLayer.arp 	initiatedARPResolution:count 	18
attr title  "ARP initiated resolutions, count"
scalar scenarioPRJP1.node[41].networkLayer.arp 	sentReply:count 	12
attr title  "ARP replies sent, count"
scalar scenarioPRJP1.node[41].networkLayer.arp 	sentReq:count 	34
attr title  "ARP request sent, count"
scalar scenarioPRJP1.node[41].mobility 	startTime 	4.8
scalar scenarioPRJP1.node[41].mobility 	totalTime 	154.4
scalar scenarioPRJP1.node[41].mobility 	stopTime 	159.3
scalar scenarioPRJP1.node[41].mobility 	minSpeed 	2.4756651161135e-13
scalar scenarioPRJP1.node[41].mobility 	maxSpeed 	18.768095639923
scalar scenarioPRJP1.node[41].mobility 	totalDistance 	1483.1743115419
scalar scenarioPRJP1.node[41].mobility 	totalCO2Emission 	463.30048399821
scalar scenarioPRJP1.node[41].wlan.mgmt 	dataQueueLen:max 	43
attr interpolationmode  sample-hold
attr title  "data queue length, max"
scalar scenarioPRJP1.node[41].wlan.mgmt 	dataQueueLen:timeavg 	0.12334063481669
attr interpolationmode  sample-hold
attr title  "data queue length, timeavg"
scalar scenarioPRJP1.node[41].wlan.mgmt 	dropPkByQueue:count 	0
attr interpolationmode  none
attr source  dropPkByQueue
attr title  "packets dropped by queue, count"
scalar scenarioPRJP1.node[41].wlan.mgmt 	dropPkByQueue:sum(packetBytes) 	0
attr interpolationmode  none
attr source  dropPkByQueue
attr title  "packets dropped by queue, sum(packetBytes)"
scalar scenarioPRJP1.node[41].wlan.mac 	"number of received packets" 	2685
scalar scenarioPRJP1.node[41].wlan.mac 	"number of collisions" 	15031
scalar scenarioPRJP1.node[41].wlan.mac 	"number of internal collisions" 	0
scalar scenarioPRJP1.node[41].wlan.mac 	"number of retry for AC 0" 	6004
scalar scenarioPRJP1.node[41].wlan.mac 	"number of retry for AC 1" 	0
scalar scenarioPRJP1.node[41].wlan.mac 	"number of retry for AC 2" 	0
scalar scenarioPRJP1.node[41].wlan.mac 	"number of retry for AC 3" 	0
scalar scenarioPRJP1.node[41].wlan.mac 	"sent and received bits" 	5134112
scalar scenarioPRJP1.node[41].wlan.mac 	"sent packet within AC 0" 	1047
scalar scenarioPRJP1.node[41].wlan.mac 	"sent packet within AC 1" 	0
scalar scenarioPRJP1.node[41].wlan.mac 	"sent packet within AC 2" 	0
scalar scenarioPRJP1.node[41].wlan.mac 	"sent packet within AC 3" 	0
scalar scenarioPRJP1.node[41].wlan.mac 	"sent in TXOP " 	0
scalar scenarioPRJP1.node[41].wlan.mac 	"sentWithoutRetry AC 0" 	911
scalar scenarioPRJP1.node[41].wlan.mac 	"sentWithoutRetry AC 1" 	0
scalar scenarioPRJP1.node[41].wlan.mac 	"sentWithoutRetry AC 2" 	0
scalar scenarioPRJP1.node[41].wlan.mac 	"sentWithoutRetry AC 3" 	0
scalar scenarioPRJP1.node[41].wlan.mac 	"numGivenUp AC 0" 	949
scalar scenarioPRJP1.node[41].wlan.mac 	"numGivenUp AC 1" 	0
scalar scenarioPRJP1.node[41].wlan.mac 	"numGivenUp AC 2" 	0
scalar scenarioPRJP1.node[41].wlan.mac 	"numGivenUp AC 3" 	0
scalar scenarioPRJP1.node[41].wlan.mac 	"numDropped AC 0" 	67
scalar scenarioPRJP1.node[41].wlan.mac 	"numDropped AC 1" 	0
scalar scenarioPRJP1.node[41].wlan.mac 	"numDropped AC 2" 	0
scalar scenarioPRJP1.node[41].wlan.mac 	"numDropped AC 3" 	0
scalar scenarioPRJP1.node[41].wlan.mac 	rcvdPkFromLL:count 	77185
attr interpolationmode  none
attr source  packetReceivedFromLower
attr title  "packets received from lower layer, count"
scalar scenarioPRJP1.node[41].wlan.mac 	rcvdPkFromLL:sum(packetBytes) 	14911230
attr interpolationmode  none
attr source  packetReceivedFromLower
attr title  "packets received from lower layer, sum(packetBytes)"
scalar scenarioPRJP1.node[41].wlan.mac 	sentDownPk:count 	15527
attr interpolationmode  none
attr source  packetSentToLower
attr title  "packets sent to lower layer, count"
scalar scenarioPRJP1.node[41].wlan.mac 	sentDownPk:sum(packetBytes) 	3078778
attr interpolationmode  none
attr source  packetSentToLower
attr title  "packets sent to lower layer, sum(packetBytes)"
scalar scenarioPRJP1.node[41].wlan.mac 	rcvdPkFromHL:count 	6912
attr interpolationmode  none
attr source  packetReceivedFromUpper
attr title  "packets received from higher layer, count"
scalar scenarioPRJP1.node[41].wlan.mac 	rcvdPkFromHL:sum(packetBytes) 	971732
attr interpolationmode  none
attr source  packetReceivedFromUpper
attr title  "packets received from higher layer, sum(packetBytes)"
scalar scenarioPRJP1.node[41].wlan.mac 	passedUpPk:count 	20877
attr interpolationmode  none
attr source  packetSentToUpper
attr title  "packets passed to higher layer, count"
scalar scenarioPRJP1.node[41].wlan.mac 	passedUpPk:sum(packetBytes) 	1827392
attr interpolationmode  none
attr source  packetSentToUpper
attr title  "packets passed to higher layer, sum(packetBytes)"
statistic scenarioPRJP1.node[41].wlan.radio 	radioChannel:histogram
field count 1
field mean 3
field stddev -nan
field sum 3
field sqrsum 9
field min 3
field max 3
attr interpolationmode  sample-hold
attr source  radioChannelChanged
attr title  "Radio channel, histogram"
bin	-INF	0
bin	2	0
bin	3	1
bin	4	0
scalar scenarioPRJP1.node[41].wlan.radio 	transmissionState:count 	62108
attr interpolationmode  sample-hold
attr source  transmissionStateChanged
attr title  "Radio transmission state, count"
scalar scenarioPRJP1.node[41].wlan.radio 	receptionState:count 	188520
attr interpolationmode  sample-hold
attr source  receptionStateChanged
attr title  "Radio reception state, count"
scalar scenarioPRJP1.node[41].wlan.radio 	radioMode:count 	31056
attr interpolationmode  sample-hold
attr source  radioModeChanged
attr title  "Radio mode, count"
statistic scenarioPRJP1.node[41].wlan.radio 	symbolErrorRate:histogram
field count 0
field mean -nan
field stddev -nan
field sum 0
field sqrsum 0
field min -nan
field max -nan
attr source  symbolErrorRate
attr title  "Symbol error rate, histogram"
bin	-INF	0
bin	-0.5	0
bin	-0.46666666666667	0
bin	-0.43333333333333	0
bin	-0.4	0
bin	-0.36666666666667	0
bin	-0.33333333333333	0
bin	-0.3	0
bin	-0.26666666666667	0
bin	-0.23333333333333	0
bin	-0.2	0
bin	-0.16666666666667	0
bin	-0.13333333333333	0
bin	-0.1	0
bin	-0.066666666666667	0
bin	-0.033333333333333	0
bin	0	0
bin	0.033333333333333	0
bin	0.066666666666667	0
bin	0.1	0
bin	0.13333333333333	0
bin	0.16666666666667	0
bin	0.2	0
bin	0.23333333333333	0
bin	0.26666666666667	0
bin	0.3	0
bin	0.33333333333333	0
bin	0.36666666666667	0
bin	0.4	0
bin	0.43333333333333	0
bin	0.46666666666667	0
bin	0.5	0
statistic scenarioPRJP1.node[41].wlan.radio 	bitErrorRate:histogram
field count 0
field mean -nan
field stddev -nan
field sum 0
field sqrsum 0
field min -nan
field max -nan
attr source  bitErrorRate
attr title  "Bit error rate, histogram"
bin	-INF	0
bin	-0.5	0
bin	-0.46666666666667	0
bin	-0.43333333333333	0
bin	-0.4	0
bin	-0.36666666666667	0
bin	-0.33333333333333	0
bin	-0.3	0
bin	-0.26666666666667	0
bin	-0.23333333333333	0
bin	-0.2	0
bin	-0.16666666666667	0
bin	-0.13333333333333	0
bin	-0.1	0
bin	-0.066666666666667	0
bin	-0.033333333333333	0
bin	0	0
bin	0.033333333333333	0
bin	0.066666666666667	0
bin	0.1	0
bin	0.13333333333333	0
bin	0.16666666666667	0
bin	0.2	0
bin	0.23333333333333	0
bin	0.26666666666667	0
bin	0.3	0
bin	0.33333333333333	0
bin	0.36666666666667	0
bin	0.4	0
bin	0.43333333333333	0
bin	0.46666666666667	0
bin	0.5	0
statistic scenarioPRJP1.node[41].wlan.radio 	packetErrorRate:histogram
field count 77185
field mean 0.17462372961992
field stddev 0.3684199619474
field sum 13478.332570714
field sqrsum 12830.073287756
field min 0
field max 1
attr source  packetErrorRate
attr title  "Packet error rate, histogram"
bin	-INF	0
bin	-0.00017582683068701	0
bin	-0.00015238325326207	0
bin	-0.00012893967583714	0
bin	-0.00010549609841221	0
bin	-8.2052520987271e-05	0
bin	-5.8608943562336e-05	0
bin	-3.5165366137402e-05	0
bin	-1.1721788712467e-05	53271
bin	1.1721788712467e-05	959
bin	3.5165366137402e-05	451
bin	5.8608943562336e-05	325
bin	8.2052520987271e-05	246
bin	0.00010549609841221	191
bin	0.00012893967583714	148
bin	0.00015238325326207	133
bin	0.00017582683068701	95
bin	0.00019927040811194	109
bin	0.00022271398553688	91
bin	0.00024615756296181	84
bin	0.00026960114038675	81
bin	0.00029304471781168	79
bin	0.00031648829523662	65
bin	0.00033993187266155	68
bin	0.00036337545008649	61
bin	0.00038681902751142	53
bin	0.00041026260493635	51
bin	0.00043370618236129	44
bin	0.00045714975978622	54
bin	0.00048059333721116	51
bin	0.00050403691463609	39
bin	0.00052748049206103	20436
statistic scenarioPRJP1.node[41].wlan.radio 	minSNIR:histogram
field count 77185
field mean 513.50097357972
field stddev 5797.0503825342
field sum 39634572.64575
field sqrsum 2614181929176.6
field min 0.00016823150583854
field max 422418.02475099
attr source  minSNIR
attr title  "Min SNIR, histogram"
bin	-INF	0
bin	-354.69998792611	0
bin	-307.01520608903	0
bin	-259.33042425194	0
bin	-211.64564241486	0
bin	-163.96086057777	0
bin	-116.27607874069	0
bin	-68.591296903605	0
bin	-20.906515066521	50476
bin	26.778266770563	10144
bin	74.463048607647	3974
bin	122.14783044473	2390
bin	169.83261228182	1579
bin	217.5173941189	1001
bin	265.20217595598	810
bin	312.88695779307	588
bin	360.57173963015	441
bin	408.25652146724	363
bin	455.94130330432	318
bin	503.6260851414	256
bin	551.31086697849	197
bin	598.99564881557	185
bin	646.68043065266	188
bin	694.36521248974	143
bin	742.04999432682	133
bin	789.73477616391	143
bin	837.41955800099	122
bin	885.10433983808	129
bin	932.78912167516	124
bin	980.47390351224	111
bin	1028.1586853493	93
bin	1075.8434671864	3277
scalar scenarioPRJP1.node[41].lo0.lo 	droppedPkBitError:count 	0
attr interpolationmode  none
attr source  dropPkBitError
attr title  "packets dropped/bit error, count"
scalar scenarioPRJP1.node[41].lo0.lo 	droppedPkBitError:sum(packetBytes) 	0
attr interpolationmode  none
attr source  dropPkBitError
attr title  "packets dropped/bit error, sum(packetBytes)"
scalar scenarioPRJP1.node[41].lo0.lo 	rcvdPkFromHL:count 	45
attr interpolationmode  none
attr source  packetReceivedFromUpper
attr title  "packets received from higher layer, count"
scalar scenarioPRJP1.node[41].lo0.lo 	rcvdPkFromHL:sum(packetBytes) 	23400
attr interpolationmode  none
attr source  packetReceivedFromUpper
attr title  "packets received from higher layer, sum(packetBytes)"
scalar scenarioPRJP1.node[41].lo0.lo 	passedUpPk:count 	45
attr interpolationmode  none
attr source  packetSentToUpper
attr title  "packets passed to higher layer, count"
scalar scenarioPRJP1.node[41].lo0.lo 	passedUpPk:sum(packetBytes) 	23400
attr interpolationmode  none
attr source  packetSentToUpper
attr title  "packets passed to higher layer, sum(packetBytes)"
scalar scenarioPRJP1.node[98].app 	"Total sent" 	370
scalar scenarioPRJP1.node[98].app 	"Total received" 	21
scalar scenarioPRJP1.node[98].app 	"Total deleted" 	0
scalar scenarioPRJP1.node[98].app 	dropPk:count 	0
attr interpolationmode  none
attr source  dropPk
attr title  "packets dropped, count"
scalar scenarioPRJP1.node[98].app 	dropPk:sum(packetBytes) 	0
attr interpolationmode  none
attr source  dropPk
attr title  "packets dropped, sum(packetBytes)"
scalar scenarioPRJP1.node[98].app 	outOfOrderPk:count 	10
attr interpolationmode  none
attr source  outOfOrderPk
attr title  "packets received out of order, count"
scalar scenarioPRJP1.node[98].app 	outOfOrderPk:sum(packetBytes) 	5120
attr interpolationmode  none
attr source  outOfOrderPk
attr title  "packets received out of order, sum(packetBytes)"
scalar scenarioPRJP1.node[98].app 	rcvdPk:count 	21
attr interpolationmode  none
attr source  rcvdPk
attr title  "packets received, count"
scalar scenarioPRJP1.node[98].app 	rcvdPk:sum(packetBytes) 	10752
attr interpolationmode  none
attr source  rcvdPk
attr title  "packets received, sum(packetBytes)"
statistic scenarioPRJP1.node[98].app 	endToEndDelay:histogram
field count 21
field mean 2.4190927107144
field stddev 4.122150339799
field sum 50.800946925002
field sqrsum 462.73466888175
field min 0.001004552523
field max 11.657800431963
attr interpolationmode  none
attr source  messageAge(rcvdPk)
attr title  "delay, histogram"
attr unit  s
bin	-INF	0
bin	-5.827393387197	0
bin	-5.050273661901	0
bin	-4.273153936605	0
bin	-3.496034211309	0
bin	-2.718914486013	0
bin	-1.941794760717	0
bin	-1.164675035421	0
bin	-0.387555310125	13
bin	0.389564415171	1
bin	1.166684140467	1
bin	1.943803865763	1
bin	2.720923591059	0
bin	3.498043316355	1
bin	4.275163041651	0
bin	5.052282766947	0
bin	5.829402492243	0
bin	6.606522217539	0
bin	7.383641942835	1
bin	8.160761668131	0
bin	8.937881393427	0
bin	9.715001118723	1
bin	10.492120844019	0
bin	11.269240569315	2
bin	12.046360294611	0
bin	12.823480019907	0
bin	13.600599745203	0
bin	14.377719470499	0
bin	15.154839195795	0
bin	15.931958921091	0
bin	16.709078646387	0
bin	17.486198371683	0
scalar scenarioPRJP1.node[98].app 	sentPk:count 	370
attr interpolationmode  none
attr source  sentPk
attr title  "packets sent, count"
scalar scenarioPRJP1.node[98].app 	sentPk:sum(packetBytes) 	189440
attr interpolationmode  none
attr source  sentPk
attr title  "packets sent, sum(packetBytes)"
scalar scenarioPRJP1.node[98].udp 	droppedPkBadChecksum:count 	0
attr interpolationmode  none
attr title  "packets dropped (checksum error), count"
scalar scenarioPRJP1.node[98].udp 	droppedPkWrongPort:count 	0
attr interpolationmode  none
attr title  "packets dropped (wrong port), count"
scalar scenarioPRJP1.node[98].udp 	passedUpPk:count 	31
attr interpolationmode  none
attr title  "packets passed up, count"
scalar scenarioPRJP1.node[98].udp 	rcvdPk:count 	31
attr interpolationmode  none
attr source  rcvdPk
attr title  "packets received, count"
scalar scenarioPRJP1.node[98].udp 	rcvdPk:sum(packetBytes) 	16120
attr interpolationmode  none
attr source  rcvdPk
attr title  "packets received, sum(packetBytes)"
scalar scenarioPRJP1.node[98].udp 	sentPk:count 	370
attr interpolationmode  none
attr source  sentPk
attr title  "packets sent, count"
scalar scenarioPRJP1.node[98].udp 	sentPk:sum(packetBytes) 	192400
attr interpolationmode  none
attr source  sentPk
attr title  "packets sent, sum(packetBytes)"
scalar scenarioPRJP1.node[98].networkLayer.arp 	failedARPResolution:count 	5
attr title  "ARP failed resolutions, count"
scalar scenarioPRJP1.node[98].networkLayer.arp 	completedARPResolution:count 	158
attr title  "ARP completed resolutions, count"
scalar scenarioPRJP1.node[98].networkLayer.arp 	initiatedARPResolution:count 	23
attr title  "ARP initiated resolutions, count"
scalar scenarioPRJP1.node[98].networkLayer.arp 	sentReply:count 	8
attr title  "ARP replies sent, count"
scalar scenarioPRJP1.node[98].networkLayer.arp 	sentReq:count 	44
attr title  "ARP request sent, count"
scalar scenarioPRJP1.node[98].mobility 	startTime 	9.8
scalar scenarioPRJP1.node[98].mobility 	totalTime 	149.9
scalar scenarioPRJP1.node[98].mobility 	stopTime 	159.8
scalar scenarioPRJP1.node[98].mobility 	minSpeed 	2.4760221320239e-13
scalar scenarioPRJP1.node[98].mobility 	maxSpeed 	18.221940042198
scalar scenarioPRJP1.node[98].mobility 	totalDistance 	1484.2875528942
scalar scenarioPRJP1.node[98].mobility 	totalCO2Emission 	449.73624438663
scalar scenarioPRJP1.node[98].wlan.mgmt 	dataQueueLen:max 	29
attr interpolationmode  sample-hold
attr title  "data queue length, max"
scalar scenarioPRJP1.node[98].wlan.mgmt 	dataQueueLen:timeavg 	0.18153295621815
attr interpolationmode  sample-hold
attr title  "data queue length, timeavg"
scalar scenarioPRJP1.node[98].wlan.mgmt 	dropPkByQueue:count 	0
attr interpolationmode  none
attr source  dropPkByQueue
attr title  "packets dropped by queue, count"
scalar scenarioPRJP1.node[98].wlan.mgmt 	dropPkByQueue:sum(packetBytes) 	0
attr interpolationmode  none
attr source  dropPkByQueue
attr title  "packets dropped by queue, sum(packetBytes)"
scalar scenarioPRJP1.node[98].wlan.mac 	"number of received packets" 	2382
scalar scenarioPRJP1.node[98].wlan.mac 	"number of collisions" 	19999
scalar scenarioPRJP1.node[98].wlan.mac 	"number of internal collisions" 	0
scalar scenarioPRJP1.node[98].wlan.mac 	"number of retry for AC 0" 	6418
scalar scenarioPRJP1.node[98].wlan.mac 	"number of retry for AC 1" 	0
scalar scenarioPRJP1.node[98].wlan.mac 	"number of retry for AC 2" 	0
scalar scenarioPRJP1.node[98].wlan.mac 	"number of retry for AC 3" 	0
scalar scenarioPRJP1.node[98].wlan.mac 	"sent and received bits" 	4622240
scalar scenarioPRJP1.node[98].wlan.mac 	"sent packet within AC 0" 	1129
scalar scenarioPRJP1.node[98].wlan.mac 	"sent packet within AC 1" 	0
scalar scenarioPRJP1.node[98].wlan.mac 	"sent packet within AC 2" 	0
scalar scenarioPRJP1.node[98].wlan.mac 	"sent packet within AC 3" 	0
scalar scenarioPRJP1.node[98].wlan.mac 	"sent in TXOP " 	0
scalar scenarioPRJP1.node[98].wlan.mac 	"sentWithoutRetry AC 0" 	1021
scalar scenarioPRJP1.node[98].wlan.mac 	"sentWithoutRetry AC 1" 	0
scalar scenarioPRJP1.node[98].wlan.mac 	"sentWithoutRetry AC 2" 	0
scalar scenarioPRJP1.node[98].wlan.mac 	"sentWithoutRetry AC 3" 	0
scalar scenarioPRJP1.node[98].wlan.mac 	"numGivenUp AC 0" 	1036
scalar scenarioPRJP1.node[98].wlan.mac 	"numGivenUp AC 1" 	0
scalar scenarioPRJP1.node[98].wlan.mac 	"numGivenUp AC 2" 	0
scalar scenarioPRJP1.node[98].wlan.mac 	"numGivenUp AC 3" 	0
scalar scenarioPRJP1.node[98].wlan.mac 	"numDropped AC 0" 	159
scalar scenarioPRJP1.node[98].wlan.mac 	"numDropped AC 1" 	0
scalar scenarioPRJP1.node[98].wlan.mac 	"numDropped AC 2" 	0
scalar scenarioPRJP1.node[98].wlan.mac 	"numDropped AC 3" 	0
scalar scenarioPRJP1.node[98].wlan.mac 	rcvdPkFromLL:count 	76770
attr interpolationmode  none
attr source  packetReceivedFromLower
attr title  "packets received from lower layer, count"
scalar scenarioPRJP1.node[98].wlan.mac 	rcvdPkFromLL:sum(packetBytes) 	15343596
attr interpolationmode  none
attr source  packetReceivedFromLower
attr title  "packets received from lower layer, sum(packetBytes)"
scalar scenarioPRJP1.node[98].wlan.mac 	sentDownPk:count 	15036
attr interpolationmode  none
attr source  packetSentToLower
attr title  "packets sent to lower layer, count"
scalar scenarioPRJP1.node[98].wlan.mac 	sentDownPk:sum(packetBytes) 	3153908
attr interpolationmode  none
attr source  packetSentToLower
attr title  "packets sent to lower layer, sum(packetBytes)"
scalar scenarioPRJP1.node[98].wlan.mac 	rcvdPkFromHL:count 	6395
attr interpolationmode  none
attr source  packetReceivedFromUpper
attr title  "packets received from higher layer, count"
scalar scenarioPRJP1.node[98].wlan.mac 	rcvdPkFromHL:sum(packetBytes) 	966200
attr interpolationmode  none
attr source  packetReceivedFromUpper
attr title  "packets received from higher layer, sum(packetBytes)"
scalar scenarioPRJP1.node[98].wlan.mac 	passedUpPk:count 	17018
attr interpolationmode  none
attr source  packetSentToUpper
attr title  "packets passed to higher layer, count"
scalar scenarioPRJP1.node[98].wlan.mac 	passedUpPk:sum(packetBytes) 	1545668
attr interpolationmode  none
attr source  packetSentToUpper
attr title  "packets passed to higher layer, sum(packetBytes)"
statistic scenarioPRJP1.node[98].wlan.radio 	radioChannel:histogram
field count 1
field mean 3
field stddev -nan
field sum 3
field sqrsum 9
field min 3
field max 3
attr interpolationmode  sample-hold
attr source  radioChannelChanged
attr title  "Radio channel, histogram"
bin	-INF	0
bin	2	0
bin	3	1
bin	4	0
scalar scenarioPRJP1.node[98].wlan.radio 	transmissionState:count 	60144
attr interpolationmode  sample-hold
attr source  transmissionStateChanged
attr title  "Radio transmission state, count"
scalar scenarioPRJP1.node[98].wlan.radio 	receptionState:count 	186497
attr interpolationmode  sample-hold
attr source  receptionStateChanged
attr title  "Radio reception state, count"
scalar scenarioPRJP1.node[98].wlan.radio 	radioMode:count 	30074
attr interpolationmode  sample-hold
attr source  radioModeChanged
attr title  "Radio mode, count"
statistic scenarioPRJP1.node[98].wlan.radio 	symbolErrorRate:histogram
field count 0
field mean -nan
field stddev -nan
field sum 0
field sqrsum 0
field min -nan
field max -nan
attr source  symbolErrorRate
attr title  "Symbol error rate, histogram"
bin	-INF	0
bin	-0.5	0
bin	-0.46666666666667	0
bin	-0.43333333333333	0
bin	-0.4	0
bin	-0.36666666666667	0
bin	-0.33333333333333	0
bin	-0.3	0
bin	-0.26666666666667	0
bin	-0.23333333333333	0
bin	-0.2	0
bin	-0.16666666666667	0
bin	-0.13333333333333	0
bin	-0.1	0
bin	-0.066666666666667	0
bin	-0.033333333333333	0
bin	0	0
bin	0.033333333333333	0
bin	0.066666666666667	0
bin	0.1	0
bin	0.13333333333333	0
bin	0.16666666666667	0
bin	0.2	0
bin	0.23333333333333	0
bin	0.26666666666667	0
bin	0.3	0
bin	0.33333333333333	0
bin	0.36666666666667	0
bin	0.4	0
bin	0.43333333333333	0
bin	0.46666666666667	0
bin	0.5	0
statistic scenarioPRJP1.node[98].wlan.radio 	bitErrorRate:histogram
field count 0
field mean -nan
field stddev -nan
field sum 0
field sqrsum 0
field min -nan
field max -nan
attr source  bitErrorRate
attr title  "Bit error rate, histogram"
bin	-INF	0
bin	-0.5	0
bin	-0.46666666666667	0
bin	-0.43333333333333	0
bin	-0.4	0
bin	-0.36666666666667	0
bin	-0.33333333333333	0
bin	-0.3	0
bin	-0.26666666666667	0
bin	-0.23333333333333	0
bin	-0.2	0
bin	-0.16666666666667	0
bin	-0.13333333333333	0
bin	-0.1	0
bin	-0.066666666666667	0
bin	-0.033333333333333	0
bin	0	0
bin	0.033333333333333	0
bin	0.066666666666667	0
bin	0.1	0
bin	0.13333333333333	0
bin	0.16666666666667	0
bin	0.2	0
bin	0.23333333333333	0
bin	0.26666666666667	0
bin	0.3	0
bin	0.33333333333333	0
bin	0.36666666666667	0
bin	0.4	0
bin	0.43333333333333	0
bin	0.46666666666667	0
bin	0.5	0
statistic scenarioPRJP1.node[98].wlan.radio 	packetErrorRate:histogram
field count 76770
field mean 0.23418750925302
field stddev 0.41318574316377
field sum 17978.575085354
field sqrsum 17316.55012452
field min 0
field max 1
attr source  packetErrorRate
attr title  "Packet error rate, histogram"
bin	-INF	0
bin	-0.5	0
bin	-0.43333333333333	0
bin	-0.36666666666667	0
bin	-0.3	0
bin	-0.23333333333333	0
bin	-0.16666666666667	0
bin	-0.1	0
bin	-0.033333333333333	55990
bin	0.033333333333333	1195
bin	0.1	521
bin	0.16666666666667	392
bin	0.23333333333333	298
bin	0.3	234
bin	0.36666666666667	218
bin	0.43333333333333	191
bin	0.5	168
bin	0.56666666666667	149
bin	0.63333333333333	158
bin	0.7	163
bin	0.76666666666667	203
bin	0.83333333333333	246
bin	0.9	361
bin	0.96666666666667	16283
bin	1.0333333333333	0
bin	1.1	0
bin	1.1666666666667	0
bin	1.2333333333333	0
bin	1.3	0
bin	1.3666666666667	0
bin	1.4333333333333	0
bin	1.5	0
statistic scenarioPRJP1.node[98].wlan.radio 	minSNIR:histogram
field count 76770
field mean 849.01006993538
field stddev 7119.7076374157
field sum 65178503.068939
field sqrsum 3946775997593.5
field min 0.0003097235114634
field max 753238.99098921
attr source  minSNIR
attr title  "Min SNIR, histogram"
bin	-INF	0
bin	-47.629961674518	0
bin	-41.248574953376	0
bin	-34.867188232233	0
bin	-28.485801511091	0
bin	-22.104414789949	0
bin	-15.723028068806	0
bin	-9.3416413476641	0
bin	-2.9602546265217	20943
bin	3.4211320946206	16408
bin	9.8025188157629	6109
bin	16.183905536905	3357
bin	22.565292258048	2134
bin	28.94667897919	1526
bin	35.328065700332	1097
bin	41.709452421474	978
bin	48.090839142617	969
bin	54.472225863759	743
bin	60.853612584901	671
bin	67.234999306044	565
bin	73.616386027186	481
bin	79.997772748328	458
bin	86.379159469471	425
bin	92.760546190613	390
bin	99.141932911755	347
bin	105.5233196329	311
bin	111.90470635404	233
bin	118.28609307518	290
bin	124.66747979632	280
bin	131.04886651747	272
bin	137.43025323861	215
bin	143.81163995975	17568
scalar scenarioPRJP1.node[98].lo0.lo 	droppedPkBitError:count 	0
attr interpolationmode  none
attr source  dropPkBitError
attr title  "packets dropped/bit error, count"
scalar scenarioPRJP1.node[98].lo0.lo 	droppedPkBitError:sum(packetBytes) 	0
attr interpolationmode  none
attr source  dropPkBitError
attr title  "packets dropped/bit error, sum(packetBytes)"
scalar scenarioPRJP1.node[98].lo0.lo 	rcvdPkFromHL:count 	31
attr interpolationmode  none
attr source  packetReceivedFromUpper
attr title  "packets received from higher layer, count"
scalar scenarioPRJP1.node[98].lo0.lo 	rcvdPkFromHL:sum(packetBytes) 	16120
attr interpolationmode  none
attr source  packetReceivedFromUpper
attr title  "packets received from higher layer, sum(packetBytes)"
scalar scenarioPRJP1.node[98].lo0.lo 	passedUpPk:count 	31
attr interpolationmode  none
attr source  packetSentToUpper
attr title  "packets passed to higher layer, count"
scalar scenarioPRJP1.node[98].lo0.lo 	passedUpPk:sum(packetBytes) 	16120
attr interpolationmode  none
attr source  packetSentToUpper
attr title  "packets passed to higher layer, sum(packetBytes)"
scalar scenarioPRJP1.node[64].app 	"Total sent" 	383
scalar scenarioPRJP1.node[64].app 	"Total received" 	29
scalar scenarioPRJP1.node[64].app 	"Total deleted" 	0
scalar scenarioPRJP1.node[64].app 	dropPk:count 	0
attr interpolationmode  none
attr source  dropPk
attr title  "packets dropped, count"
scalar scenarioPRJP1.node[64].app 	dropPk:sum(packetBytes) 	0
attr interpolationmode  none
attr source  dropPk
attr title  "packets dropped, sum(packetBytes)"
scalar scenarioPRJP1.node[64].app 	outOfOrderPk:count 	10
attr interpolationmode  none
attr source  outOfOrderPk
attr title  "packets received out of order, count"
scalar scenarioPRJP1.node[64].app 	outOfOrderPk:sum(packetBytes) 	5120
attr interpolationmode  none
attr source  outOfOrderPk
attr title  "packets received out of order, sum(packetBytes)"
scalar scenarioPRJP1.node[64].app 	rcvdPk:count 	29
attr interpolationmode  none
attr source  rcvdPk
attr title  "packets received, count"
scalar scenarioPRJP1.node[64].app 	rcvdPk:sum(packetBytes) 	14848
attr interpolationmode  none
attr source  rcvdPk
attr title  "packets received, sum(packetBytes)"
statistic scenarioPRJP1.node[64].app 	endToEndDelay:histogram
field count 29
field mean 2.0084621997433
field stddev 4.4396172549656
field sum 58.245403792555
field sqrsum 668.8693302026
field min 0.002089853152
field max 18.054624328964
attr interpolationmode  none
attr source  messageAge(rcvdPk)
attr title  "delay, histogram"
attr unit  s
bin	-INF	0
bin	-9.024177384754	0
bin	-7.8206750863665	0
bin	-6.6171727879791	0
bin	-5.4136704895916	0
bin	-4.2101681912041	0
bin	-3.0066658928167	0
bin	-1.8031635944292	0
bin	-0.59966129604173	18
bin	0.60384100234573	4
bin	1.8073433007332	3
bin	3.0108455991207	1
bin	4.2143478975081	0
bin	5.4178501958956	1
bin	6.6213524942831	0
bin	7.8248547926705	0
bin	9.028357091058	0
bin	10.231859389445	0
bin	11.435361687833	0
bin	12.63886398622	0
bin	13.842366284608	0
bin	15.045868582995	1
bin	16.249370881383	0
bin	17.45287317977	1
bin	18.656375478158	0
bin	19.859877776545	0
bin	21.063380074933	0
bin	22.26688237332	0
bin	23.470384671708	0
bin	24.673886970095	0
bin	25.877389268483	0
bin	27.08089156687	0
scalar scenarioPRJP1.node[64].app 	sentPk:count 	383
attr interpolationmode  none
attr source  sentPk
attr title  "packets sent, count"
scalar scenarioPRJP1.node[64].app 	sentPk:sum(packetBytes) 	196096
attr interpolationmode  none
attr source  sentPk
attr title  "packets sent, sum(packetBytes)"
scalar scenarioPRJP1.node[64].udp 	droppedPkBadChecksum:count 	0
attr interpolationmode  none
attr title  "packets dropped (checksum error), count"
scalar scenarioPRJP1.node[64].udp 	droppedPkWrongPort:count 	0
attr interpolationmode  none
attr title  "packets dropped (wrong port), count"
scalar scenarioPRJP1.node[64].udp 	passedUpPk:count 	39
attr interpolationmode  none
attr title  "packets passed up, count"
scalar scenarioPRJP1.node[64].udp 	rcvdPk:count 	39
attr interpolationmode  none
attr source  rcvdPk
attr title  "packets received, count"
scalar scenarioPRJP1.node[64].udp 	rcvdPk:sum(packetBytes) 	20280
attr interpolationmode  none
attr source  rcvdPk
attr title  "packets received, sum(packetBytes)"
scalar scenarioPRJP1.node[64].udp 	sentPk:count 	383
attr interpolationmode  none
attr source  sentPk
attr title  "packets sent, count"
scalar scenarioPRJP1.node[64].udp 	sentPk:sum(packetBytes) 	199160
attr interpolationmode  none
attr source  sentPk
attr title  "packets sent, sum(packetBytes)"
scalar scenarioPRJP1.node[64].networkLayer.arp 	failedARPResolution:count 	4
attr title  "ARP failed resolutions, count"
scalar scenarioPRJP1.node[64].networkLayer.arp 	completedARPResolution:count 	183
attr title  "ARP completed resolutions, count"
scalar scenarioPRJP1.node[64].networkLayer.arp 	initiatedARPResolution:count 	22
attr title  "ARP initiated resolutions, count"
scalar scenarioPRJP1.node[64].networkLayer.arp 	sentReply:count 	17
attr title  "ARP replies sent, count"
scalar scenarioPRJP1.node[64].networkLayer.arp 	sentReq:count 	36
attr title  "ARP request sent, count"
scalar scenarioPRJP1.node[64].mobility 	startTime 	7.3
scalar scenarioPRJP1.node[64].mobility 	totalTime 	156.1
scalar scenarioPRJP1.node[64].mobility 	stopTime 	163.5
scalar scenarioPRJP1.node[64].mobility 	minSpeed 	2.4756528232334e-13
scalar scenarioPRJP1.node[64].mobility 	maxSpeed 	15.008216776378
scalar scenarioPRJP1.node[64].mobility 	totalDistance 	1484.5456923634
scalar scenarioPRJP1.node[64].mobility 	totalCO2Emission 	403.75021400339
scalar scenarioPRJP1.node[64].wlan.mgmt 	dataQueueLen:max 	50
attr interpolationmode  sample-hold
attr title  "data queue length, max"
scalar scenarioPRJP1.node[64].wlan.mgmt 	dataQueueLen:timeavg 	0.50211454358573
attr interpolationmode  sample-hold
attr title  "data queue length, timeavg"
scalar scenarioPRJP1.node[64].wlan.mgmt 	dropPkByQueue:count 	0
attr interpolationmode  none
attr source  dropPkByQueue
attr title  "packets dropped by queue, count"
scalar scenarioPRJP1.node[64].wlan.mgmt 	dropPkByQueue:sum(packetBytes) 	0
attr interpolationmode  none
attr source  dropPkByQueue
attr title  "packets dropped by queue, sum(packetBytes)"
scalar scenarioPRJP1.node[64].wlan.mac 	"number of received packets" 	2689
scalar scenarioPRJP1.node[64].wlan.mac 	"number of collisions" 	24957
scalar scenarioPRJP1.node[64].wlan.mac 	"number of internal collisions" 	0
scalar scenarioPRJP1.node[64].wlan.mac 	"number of retry for AC 0" 	7100
scalar scenarioPRJP1.node[64].wlan.mac 	"number of retry for AC 1" 	0
scalar scenarioPRJP1.node[64].wlan.mac 	"number of retry for AC 2" 	0
scalar scenarioPRJP1.node[64].wlan.mac 	"number of retry for AC 3" 	0
scalar scenarioPRJP1.node[64].wlan.mac 	"sent and received bits" 	5421728
scalar scenarioPRJP1.node[64].wlan.mac 	"sent packet within AC 0" 	946
scalar scenarioPRJP1.node[64].wlan.mac 	"sent packet within AC 1" 	0
scalar scenarioPRJP1.node[64].wlan.mac 	"sent packet within AC 2" 	0
scalar scenarioPRJP1.node[64].wlan.mac 	"sent packet within AC 3" 	0
scalar scenarioPRJP1.node[64].wlan.mac 	"sent in TXOP " 	0
scalar scenarioPRJP1.node[64].wlan.mac 	"sentWithoutRetry AC 0" 	835
scalar scenarioPRJP1.node[64].wlan.mac 	"sentWithoutRetry AC 1" 	0
scalar scenarioPRJP1.node[64].wlan.mac 	"sentWithoutRetry AC 2" 	0
scalar scenarioPRJP1.node[64].wlan.mac 	"sentWithoutRetry AC 3" 	0
scalar scenarioPRJP1.node[64].wlan.mac 	"numGivenUp AC 0" 	1139
scalar scenarioPRJP1.node[64].wlan.mac 	"numGivenUp AC 1" 	0
scalar scenarioPRJP1.node[64].wlan.mac 	"numGivenUp AC 2" 	0
scalar scenarioPRJP1.node[64].wlan.mac 	"numGivenUp AC 3" 	0
scalar scenarioPRJP1.node[64].wlan.mac 	"numDropped AC 0" 	225
scalar scenarioPRJP1.node[64].wlan.mac 	"numDropped AC 1" 	0
scalar scenarioPRJP1.node[64].wlan.mac 	"numDropped AC 2" 	0
scalar scenarioPRJP1.node[64].wlan.mac 	"numDropped AC 3" 	0
scalar scenarioPRJP1.node[64].wlan.mac 	rcvdPkFromLL:count 	97304
attr interpolationmode  none
attr source  packetReceivedFromLower
attr title  "packets received from lower layer, count"
scalar scenarioPRJP1.node[64].wlan.mac 	rcvdPkFromLL:sum(packetBytes) 	17912792
attr interpolationmode  none
attr source  packetReceivedFromLower
attr title  "packets received from lower layer, sum(packetBytes)"
scalar scenarioPRJP1.node[64].wlan.mac 	sentDownPk:count 	17609
attr interpolationmode  none
attr source  packetSentToLower
attr title  "packets sent to lower layer, count"
scalar scenarioPRJP1.node[64].wlan.mac 	sentDownPk:sum(packetBytes) 	3284638
attr interpolationmode  none
attr source  packetSentToLower
attr title  "packets sent to lower layer, sum(packetBytes)"
scalar scenarioPRJP1.node[64].wlan.mac 	rcvdPkFromHL:count 	8045
attr interpolationmode  none
attr source  packetReceivedFromUpper
attr title  "packets received from higher layer, count"
scalar scenarioPRJP1.node[64].wlan.mac 	rcvdPkFromHL:sum(packetBytes) 	1062228
attr interpolationmode  none
attr source  packetReceivedFromUpper
attr title  "packets received from higher layer, sum(packetBytes)"
scalar scenarioPRJP1.node[64].wlan.mac 	passedUpPk:count 	25173
attr interpolationmode  none
attr source  packetSentToUpper
attr title  "packets passed to higher layer, count"
scalar scenarioPRJP1.node[64].wlan.mac 	passedUpPk:sum(packetBytes) 	2128524
attr interpolationmode  none
attr source  packetSentToUpper
attr title  "packets passed to higher layer, sum(packetBytes)"
statistic scenarioPRJP1.node[64].wlan.radio 	radioChannel:histogram
field count 1
field mean 3
field stddev -nan
field sum 3
field sqrsum 9
field min 3
field max 3
attr interpolationmode  sample-hold
attr source  radioChannelChanged
attr title  "Radio channel, histogram"
bin	-INF	0
bin	2	0
bin	3	1
bin	4	0
scalar scenarioPRJP1.node[64].wlan.radio 	transmissionState:count 	70436
attr interpolationmode  sample-hold
attr source  transmissionStateChanged
attr title  "Radio transmission state, count"
scalar scenarioPRJP1.node[64].wlan.radio 	receptionState:count 	233606
attr interpolationmode  sample-hold
attr source  receptionStateChanged
attr title  "Radio reception state, count"
scalar scenarioPRJP1.node[64].wlan.radio 	radioMode:count 	35220
attr interpolationmode  sample-hold
attr source  radioModeChanged
attr title  "Radio mode, count"
statistic scenarioPRJP1.node[64].wlan.radio 	symbolErrorRate:histogram
field count 0
field mean -nan
field stddev -nan
field sum 0
field sqrsum 0
field min -nan
field max -nan
attr source  symbolErrorRate
attr title  "Symbol error rate, histogram"
bin	-INF	0
bin	-0.5	0
bin	-0.46666666666667	0
bin	-0.43333333333333	0
bin	-0.4	0
bin	-0.36666666666667	0
bin	-0.33333333333333	0
bin	-0.3	0
bin	-0.26666666666667	0
bin	-0.23333333333333	0
bin	-0.2	0
bin	-0.16666666666667	0
bin	-0.13333333333333	0
bin	-0.1	0
bin	-0.066666666666667	0
bin	-0.033333333333333	0
bin	0	0
bin	0.033333333333333	0
bin	0.066666666666667	0
bin	0.1	0
bin	0.13333333333333	0
bin	0.16666666666667	0
bin	0.2	0
bin	0.23333333333333	0
bin	0.26666666666667	0
bin	0.3	0
bin	0.33333333333333	0
bin	0.36666666666667	0
bin	0.4	0
bin	0.43333333333333	0
bin	0.46666666666667	0
bin	0.5	0
statistic scenarioPRJP1.node[64].wlan.radio 	bitErrorRate:histogram
field count 0
field mean -nan
field stddev -nan
field sum 0
field sqrsum 0
field min -nan
field max -nan
attr source  bitErrorRate
attr title  "Bit error rate, histogram"
bin	-INF	0
bin	-0.5	0
bin	-0.46666666666667	0
bin	-0.43333333333333	0
bin	-0.4	0
bin	-0.36666666666667	0
bin	-0.33333333333333	0
bin	-0.3	0
bin	-0.26666666666667	0
bin	-0.23333333333333	0
bin	-0.2	0
bin	-0.16666666666667	0
bin	-0.13333333333333	0
bin	-0.1	0
bin	-0.066666666666667	0
bin	-0.033333333333333	0
bin	0	0
bin	0.033333333333333	0
bin	0.066666666666667	0
bin	0.1	0
bin	0.13333333333333	0
bin	0.16666666666667	0
bin	0.2	0
bin	0.23333333333333	0
bin	0.26666666666667	0
bin	0.3	0
bin	0.33333333333333	0
bin	0.36666666666667	0
bin	0.4	0
bin	0.43333333333333	0
bin	0.46666666666667	0
bin	0.5	0
statistic scenarioPRJP1.node[64].wlan.radio 	packetErrorRate:histogram
field count 97304
field mean 0.22744321571655
field stddev 0.40813789417435
field sum 22131.134662083
field sqrsum 21241.973570944
field min 0
field max 1
attr source  packetErrorRate
attr title  "Packet error rate, histogram"
bin	-INF	0
bin	-0.5	0
bin	-0.43333333333333	0
bin	-0.36666666666667	0
bin	-0.3	0
bin	-0.23333333333333	0
bin	-0.16666666666667	0
bin	-0.1	0
bin	-0.033333333333333	71534
bin	0.033333333333333	1476
bin	0.1	718
bin	0.16666666666667	482
bin	0.23333333333333	376
bin	0.3	316
bin	0.36666666666667	284
bin	0.43333333333333	301
bin	0.5	231
bin	0.56666666666667	245
bin	0.63333333333333	216
bin	0.7	240
bin	0.76666666666667	240
bin	0.83333333333333	291
bin	0.9	471
bin	0.96666666666667	19883
bin	1.0333333333333	0
bin	1.1	0
bin	1.1666666666667	0
bin	1.2333333333333	0
bin	1.3	0
bin	1.3666666666667	0
bin	1.4333333333333	0
bin	1.5	0
statistic scenarioPRJP1.node[64].wlan.radio 	minSNIR:histogram
field count 97304
field mean 632.57921030636
field stddev 6772.1886476983
field sum 61552487.47965
field sqrsum 4501499464024.9
field min 0.00055746484208238
field max 753233.46888622
attr source  minSNIR
attr title  "Min SNIR, histogram"
bin	-INF	0
bin	-4738.224797585	0
bin	-4106.4061976627	0
bin	-3474.5875977404	0
bin	-2842.7689978181	0
bin	-2210.9503978958	0
bin	-1579.1317979735	0
bin	-947.31319805122	0
bin	-315.49459812891	86146
bin	316.32400179339	4659
bin	948.1426017157	1719
bin	1579.961201638	846
bin	2211.7798015603	567
bin	2843.5984014826	409
bin	3475.4170014049	349
bin	4107.2356013272	266
bin	4739.0542012495	206
bin	5370.8728011718	151
bin	6002.6914010941	166
bin	6634.5100010164	144
bin	7266.3286009387	132
bin	7898.147200861	107
bin	8529.9658007833	106
bin	9161.7844007057	96
bin	9793.603000628	77
bin	10425.42160055	80
bin	11057.240200473	60
bin	11689.058800395	52
bin	12320.877400317	70
bin	12952.696000239	51
bin	13584.514600162	49
bin	14216.333200084	796
scalar scenarioPRJP1.node[64].lo0.lo 	droppedPkBitError:count 	0
attr interpolationmode  none
attr source  dropPkBitError
attr title  "packets dropped/bit error, count"
scalar scenarioPRJP1.node[64].lo0.lo 	droppedPkBitError:sum(packetBytes) 	0
attr interpolationmode  none
attr source  dropPkBitError
attr title  "packets dropped/bit error, sum(packetBytes)"
scalar scenarioPRJP1.node[64].lo0.lo 	rcvdPkFromHL:count 	39
attr interpolationmode  none
attr source  packetReceivedFromUpper
attr title  "packets received from higher layer, count"
scalar scenarioPRJP1.node[64].lo0.lo 	rcvdPkFromHL:sum(packetBytes) 	20280
attr interpolationmode  none
attr source  packetReceivedFromUpper
attr title  "packets received from higher layer, sum(packetBytes)"
scalar scenarioPRJP1.node[64].lo0.lo 	passedUpPk:count 	39
attr interpolationmode  none
attr source  packetSentToUpper
attr title  "packets passed to higher layer, count"
scalar scenarioPRJP1.node[64].lo0.lo 	passedUpPk:sum(packetBytes) 	20280
attr interpolationmode  none
attr source  packetSentToUpper
attr title  "packets passed to higher layer, sum(packetBytes)"
scalar scenarioPRJP1.node[56].app 	"Total sent" 	387
scalar scenarioPRJP1.node[56].app 	"Total received" 	20
scalar scenarioPRJP1.node[56].app 	"Total deleted" 	1
scalar scenarioPRJP1.node[56].app 	dropPk:count 	1
attr interpolationmode  none
attr source  dropPk
attr title  "packets dropped, count"
scalar scenarioPRJP1.node[56].app 	dropPk:sum(packetBytes) 	512
attr interpolationmode  none
attr source  dropPk
attr title  "packets dropped, sum(packetBytes)"
scalar scenarioPRJP1.node[56].app 	outOfOrderPk:count 	3
attr interpolationmode  none
attr source  outOfOrderPk
attr title  "packets received out of order, count"
scalar scenarioPRJP1.node[56].app 	outOfOrderPk:sum(packetBytes) 	1536
attr interpolationmode  none
attr source  outOfOrderPk
attr title  "packets received out of order, sum(packetBytes)"
scalar scenarioPRJP1.node[56].app 	rcvdPk:count 	20
attr interpolationmode  none
attr source  rcvdPk
attr title  "packets received, count"
scalar scenarioPRJP1.node[56].app 	rcvdPk:sum(packetBytes) 	10240
attr interpolationmode  none
attr source  rcvdPk
attr title  "packets received, sum(packetBytes)"
statistic scenarioPRJP1.node[56].app 	endToEndDelay:histogram
field count 20
field mean 2.1832390304481
field stddev 4.8387002839103
field sum 43.664780608962
field sqrsum 540.1780415942
field min 0.000977166519
field max 19.302915380975
attr interpolationmode  none
attr source  messageAge(rcvdPk)
attr title  "delay, histogram"
attr unit  s
bin	-INF	0
bin	-9.649991940709	0
bin	-8.3631960597453	0
bin	-7.0764001787815	0
bin	-5.7896042978178	0
bin	-4.5028084168541	0
bin	-3.2160125358903	0
bin	-1.9292166549266	0
bin	-0.64242077396287	14
bin	0.64437510700087	2
bin	1.9311709879646	0
bin	3.2179668689283	1
bin	4.5047627498921	0
bin	5.7915586308558	1
bin	7.0783545118195	0
bin	8.3651503927833	0
bin	9.651946273747	1
bin	10.938742154711	0
bin	12.225538035674	0
bin	13.512333916638	0
bin	14.799129797602	0
bin	16.085925678566	0
bin	17.372721559529	0
bin	18.659517440493	1
bin	19.946313321457	0
bin	21.233109202421	0
bin	22.519905083384	0
bin	23.806700964348	0
bin	25.093496845312	0
bin	26.380292726276	0
bin	27.667088607239	0
bin	28.953884488203	0
scalar scenarioPRJP1.node[56].app 	sentPk:count 	387
attr interpolationmode  none
attr source  sentPk
attr title  "packets sent, count"
scalar scenarioPRJP1.node[56].app 	sentPk:sum(packetBytes) 	198144
attr interpolationmode  none
attr source  sentPk
attr title  "packets sent, sum(packetBytes)"
scalar scenarioPRJP1.node[56].udp 	droppedPkBadChecksum:count 	0
attr interpolationmode  none
attr title  "packets dropped (checksum error), count"
scalar scenarioPRJP1.node[56].udp 	droppedPkWrongPort:count 	0
attr interpolationmode  none
attr title  "packets dropped (wrong port), count"
scalar scenarioPRJP1.node[56].udp 	passedUpPk:count 	24
attr interpolationmode  none
attr title  "packets passed up, count"
scalar scenarioPRJP1.node[56].udp 	rcvdPk:count 	24
attr interpolationmode  none
attr source  rcvdPk
attr title  "packets received, count"
scalar scenarioPRJP1.node[56].udp 	rcvdPk:sum(packetBytes) 	12480
attr interpolationmode  none
attr source  rcvdPk
attr title  "packets received, sum(packetBytes)"
scalar scenarioPRJP1.node[56].udp 	sentPk:count 	387
attr interpolationmode  none
attr source  sentPk
attr title  "packets sent, count"
scalar scenarioPRJP1.node[56].udp 	sentPk:sum(packetBytes) 	201240
attr interpolationmode  none
attr source  sentPk
attr title  "packets sent, sum(packetBytes)"
scalar scenarioPRJP1.node[56].networkLayer.arp 	failedARPResolution:count 	4
attr title  "ARP failed resolutions, count"
scalar scenarioPRJP1.node[56].networkLayer.arp 	completedARPResolution:count 	100
attr title  "ARP completed resolutions, count"
scalar scenarioPRJP1.node[56].networkLayer.arp 	initiatedARPResolution:count 	16
attr title  "ARP initiated resolutions, count"
scalar scenarioPRJP1.node[56].networkLayer.arp 	sentReply:count 	7
attr title  "ARP replies sent, count"
scalar scenarioPRJP1.node[56].networkLayer.arp 	sentReq:count 	29
attr title  "ARP request sent, count"
scalar scenarioPRJP1.node[56].mobility 	startTime 	4.9
scalar scenarioPRJP1.node[56].mobility 	totalTime 	160.8
scalar scenarioPRJP1.node[56].mobility 	stopTime 	165.8
scalar scenarioPRJP1.node[56].mobility 	minSpeed 	3.0393467280469e-08
scalar scenarioPRJP1.node[56].mobility 	maxSpeed 	13.264711319332
scalar scenarioPRJP1.node[56].mobility 	totalDistance 	1448.8146604796
scalar scenarioPRJP1.node[56].mobility 	totalCO2Emission 	383.17009754891
scalar scenarioPRJP1.node[56].wlan.mgmt 	dataQueueLen:max 	15
attr interpolationmode  sample-hold
attr title  "data queue length, max"
scalar scenarioPRJP1.node[56].wlan.mgmt 	dataQueueLen:timeavg 	0
attr interpolationmode  sample-hold
attr title  "data queue length, timeavg"
scalar scenarioPRJP1.node[56].wlan.mgmt 	dropPkByQueue:count 	0
attr interpolationmode  none
attr source  dropPkByQueue
attr title  "packets dropped by queue, count"
scalar scenarioPRJP1.node[56].wlan.mgmt 	dropPkByQueue:sum(packetBytes) 	0
attr interpolationmode  none
attr source  dropPkByQueue
attr title  "packets dropped by queue, sum(packetBytes)"
scalar scenarioPRJP1.node[56].wlan.mac 	"number of received packets" 	1572
scalar scenarioPRJP1.node[56].wlan.mac 	"number of collisions" 	13919
scalar scenarioPRJP1.node[56].wlan.mac 	"number of internal collisions" 	0
scalar scenarioPRJP1.node[56].wlan.mac 	"number of retry for AC 0" 	3357
scalar scenarioPRJP1.node[56].wlan.mac 	"number of retry for AC 1" 	0
scalar scenarioPRJP1.node[56].wlan.mac 	"number of retry for AC 2" 	0
scalar scenarioPRJP1.node[56].wlan.mac 	"number of retry for AC 3" 	0
scalar scenarioPRJP1.node[56].wlan.mac 	"sent and received bits" 	3795552
scalar scenarioPRJP1.node[56].wlan.mac 	"sent packet within AC 0" 	461
scalar scenarioPRJP1.node[56].wlan.mac 	"sent packet within AC 1" 	0
scalar scenarioPRJP1.node[56].wlan.mac 	"sent packet within AC 2" 	0
scalar scenarioPRJP1.node[56].wlan.mac 	"sent packet within AC 3" 	0
scalar scenarioPRJP1.node[56].wlan.mac 	"sent in TXOP " 	0
scalar scenarioPRJP1.node[56].wlan.mac 	"sentWithoutRetry AC 0" 	413
scalar scenarioPRJP1.node[56].wlan.mac 	"sentWithoutRetry AC 1" 	0
scalar scenarioPRJP1.node[56].wlan.mac 	"sentWithoutRetry AC 2" 	0
scalar scenarioPRJP1.node[56].wlan.mac 	"sentWithoutRetry AC 3" 	0
scalar scenarioPRJP1.node[56].wlan.mac 	"numGivenUp AC 0" 	540
scalar scenarioPRJP1.node[56].wlan.mac 	"numGivenUp AC 1" 	0
scalar scenarioPRJP1.node[56].wlan.mac 	"numGivenUp AC 2" 	0
scalar scenarioPRJP1.node[56].wlan.mac 	"numGivenUp AC 3" 	0
scalar scenarioPRJP1.node[56].wlan.mac 	"numDropped AC 0" 	0
scalar scenarioPRJP1.node[56].wlan.mac 	"numDropped AC 1" 	0
scalar scenarioPRJP1.node[56].wlan.mac 	"numDropped AC 2" 	0
scalar scenarioPRJP1.node[56].wlan.mac 	"numDropped AC 3" 	0
scalar scenarioPRJP1.node[56].wlan.mac 	rcvdPkFromLL:count 	45512
attr interpolationmode  none
attr source  packetReceivedFromLower
attr title  "packets received from lower layer, count"
scalar scenarioPRJP1.node[56].wlan.mac 	rcvdPkFromLL:sum(packetBytes) 	8747982
attr interpolationmode  none
attr source  packetReceivedFromLower
attr title  "packets received from lower layer, sum(packetBytes)"
scalar scenarioPRJP1.node[56].wlan.mac 	sentDownPk:count 	10635
attr interpolationmode  none
attr source  packetSentToLower
attr title  "packets sent to lower layer, count"
scalar scenarioPRJP1.node[56].wlan.mac 	sentDownPk:sum(packetBytes) 	1742364
attr interpolationmode  none
attr source  packetSentToLower
attr title  "packets sent to lower layer, sum(packetBytes)"
scalar scenarioPRJP1.node[56].wlan.mac 	rcvdPkFromHL:count 	5706
attr interpolationmode  none
attr source  packetReceivedFromUpper
attr title  "packets received from higher layer, count"
scalar scenarioPRJP1.node[56].wlan.mac 	rcvdPkFromHL:sum(packetBytes) 	646632
attr interpolationmode  none
attr source  packetReceivedFromUpper
attr title  "packets received from higher layer, sum(packetBytes)"
scalar scenarioPRJP1.node[56].wlan.mac 	passedUpPk:count 	13144
attr interpolationmode  none
attr source  packetSentToUpper
attr title  "packets passed to higher layer, count"
scalar scenarioPRJP1.node[56].wlan.mac 	passedUpPk:sum(packetBytes) 	1083408
attr interpolationmode  none
attr source  packetSentToUpper
attr title  "packets passed to higher layer, sum(packetBytes)"
statistic scenarioPRJP1.node[56].wlan.radio 	radioChannel:histogram
field count 1
field mean 3
field stddev -nan
field sum 3
field sqrsum 9
field min 3
field max 3
attr interpolationmode  sample-hold
attr source  radioChannelChanged
attr title  "Radio channel, histogram"
bin	-INF	0
bin	2	0
bin	3	1
bin	4	0
scalar scenarioPRJP1.node[56].wlan.radio 	transmissionState:count 	42540
attr interpolationmode  sample-hold
attr source  transmissionStateChanged
attr title  "Radio transmission state, count"
scalar scenarioPRJP1.node[56].wlan.radio 	receptionState:count 	114013
attr interpolationmode  sample-hold
attr source  receptionStateChanged
attr title  "Radio reception state, count"
scalar scenarioPRJP1.node[56].wlan.radio 	radioMode:count 	21272
attr interpolationmode  sample-hold
attr source  radioModeChanged
attr title  "Radio mode, count"
statistic scenarioPRJP1.node[56].wlan.radio 	symbolErrorRate:histogram
field count 0
field mean -nan
field stddev -nan
field sum 0
field sqrsum 0
field min -nan
field max -nan
attr source  symbolErrorRate
attr title  "Symbol error rate, histogram"
bin	-INF	0
bin	-0.5	0
bin	-0.46666666666667	0
bin	-0.43333333333333	0
bin	-0.4	0
bin	-0.36666666666667	0
bin	-0.33333333333333	0
bin	-0.3	0
bin	-0.26666666666667	0
bin	-0.23333333333333	0
bin	-0.2	0
bin	-0.16666666666667	0
bin	-0.13333333333333	0
bin	-0.1	0
bin	-0.066666666666667	0
bin	-0.033333333333333	0
bin	0	0
bin	0.033333333333333	0
bin	0.066666666666667	0
bin	0.1	0
bin	0.13333333333333	0
bin	0.16666666666667	0
bin	0.2	0
bin	0.23333333333333	0
bin	0.26666666666667	0
bin	0.3	0
bin	0.33333333333333	0
bin	0.36666666666667	0
bin	0.4	0
bin	0.43333333333333	0
bin	0.46666666666667	0
bin	0.5	0
statistic scenarioPRJP1.node[56].wlan.radio 	bitErrorRate:histogram
field count 0
field mean -nan
field stddev -nan
field sum 0
field sqrsum 0
field min -nan
field max -nan
attr source  bitErrorRate
attr title  "Bit error rate, histogram"
bin	-INF	0
bin	-0.5	0
bin	-0.46666666666667	0
bin	-0.43333333333333	0
bin	-0.4	0
bin	-0.36666666666667	0
bin	-0.33333333333333	0
bin	-0.3	0
bin	-0.26666666666667	0
bin	-0.23333333333333	0
bin	-0.2	0
bin	-0.16666666666667	0
bin	-0.13333333333333	0
bin	-0.1	0
bin	-0.066666666666667	0
bin	-0.033333333333333	0
bin	0	0
bin	0.033333333333333	0
bin	0.066666666666667	0
bin	0.1	0
bin	0.13333333333333	0
bin	0.16666666666667	0
bin	0.2	0
bin	0.23333333333333	0
bin	0.26666666666667	0
bin	0.3	0
bin	0.33333333333333	0
bin	0.36666666666667	0
bin	0.4	0
bin	0.43333333333333	0
bin	0.46666666666667	0
bin	0.5	0
statistic scenarioPRJP1.node[56].wlan.radio 	packetErrorRate:histogram
field count 45512
field mean 0.27210388328207
field stddev 0.43341486115087
field sum 12383.991935933
field sqrsum 11918.902734084
field min 0
field max 1
attr source  packetErrorRate
attr title  "Packet error rate, histogram"
bin	-INF	0
bin	-0.5	0
bin	-0.43333333333333	0
bin	-0.36666666666667	0
bin	-0.3	0
bin	-0.23333333333333	0
bin	-0.16666666666667	0
bin	-0.1	0
bin	-0.033333333333333	31159
bin	0.033333333333333	808
bin	0.1	417
bin	0.16666666666667	279
bin	0.23333333333333	193
bin	0.3	163
bin	0.36666666666667	148
bin	0.43333333333333	121
bin	0.5	113
bin	0.56666666666667	125
bin	0.63333333333333	127
bin	0.7	113
bin	0.76666666666667	117
bin	0.83333333333333	178
bin	0.9	251
bin	0.96666666666667	11200
bin	1.0333333333333	0
bin	1.1	0
bin	1.1666666666667	0
bin	1.2333333333333	0
bin	1.3	0
bin	1.3666666666667	0
bin	1.4333333333333	0
bin	1.5	0
statistic scenarioPRJP1.node[56].wlan.radio 	minSNIR:histogram
field count 45512
field mean 323.47830384319
field stddev 2403.2340916899
field sum 14722144.564511
field sqrsum 267612626753.22
field min 0.00055161463036172
field max 193979.33335751
attr source  minSNIR
attr title  "Min SNIR, histogram"
bin	-INF	0
bin	-10058.215897232	0
bin	-8716.9671985987	0
bin	-7375.7184999649	0
bin	-6034.4698013311	0
bin	-4693.2211026973	0
bin	-3351.9724040635	0
bin	-2010.7237054297	0
bin	-669.47500679587	40996
bin	671.77369183793	3221
bin	2013.0223904717	598
bin	3354.2710891055	221
bin	4695.5197877393	121
bin	6036.7684863731	48
bin	7378.0171850069	50
bin	8719.2658836407	34
bin	10060.514582275	30
bin	11401.763280908	31
bin	12743.011979542	21
bin	14084.260678176	16
bin	15425.50937681	21
bin	16766.758075444	11
bin	18108.006774077	9
bin	19449.255472711	30
bin	20790.504171345	8
bin	22131.752869979	5
bin	23473.001568613	5
bin	24814.250267246	8
bin	26155.49896588	0
bin	27496.747664514	3
bin	28837.996363148	2
bin	30179.245061782	23
scalar scenarioPRJP1.node[56].lo0.lo 	droppedPkBitError:count 	0
attr interpolationmode  none
attr source  dropPkBitError
attr title  "packets dropped/bit error, count"
scalar scenarioPRJP1.node[56].lo0.lo 	droppedPkBitError:sum(packetBytes) 	0
attr interpolationmode  none
attr source  dropPkBitError
attr title  "packets dropped/bit error, sum(packetBytes)"
scalar scenarioPRJP1.node[56].lo0.lo 	rcvdPkFromHL:count 	24
attr interpolationmode  none
attr source  packetReceivedFromUpper
attr title  "packets received from higher layer, count"
scalar scenarioPRJP1.node[56].lo0.lo 	rcvdPkFromHL:sum(packetBytes) 	12480
attr interpolationmode  none
attr source  packetReceivedFromUpper
attr title  "packets received from higher layer, sum(packetBytes)"
scalar scenarioPRJP1.node[56].lo0.lo 	passedUpPk:count 	24
attr interpolationmode  none
attr source  packetSentToUpper
attr title  "packets passed to higher layer, count"
scalar scenarioPRJP1.node[56].lo0.lo 	passedUpPk:sum(packetBytes) 	12480
attr interpolationmode  none
attr source  packetSentToUpper
attr title  "packets passed to higher layer, sum(packetBytes)"
scalar scenarioPRJP1.node[32].app 	"Total sent" 	616
scalar scenarioPRJP1.node[32].app 	"Total received" 	30
scalar scenarioPRJP1.node[32].app 	"Total deleted" 	2
scalar scenarioPRJP1.node[32].app 	dropPk:count 	2
attr interpolationmode  none
attr source  dropPk
attr title  "packets dropped, count"
scalar scenarioPRJP1.node[32].app 	dropPk:sum(packetBytes) 	1024
attr interpolationmode  none
attr source  dropPk
attr title  "packets dropped, sum(packetBytes)"
scalar scenarioPRJP1.node[32].app 	outOfOrderPk:count 	5
attr interpolationmode  none
attr source  outOfOrderPk
attr title  "packets received out of order, count"
scalar scenarioPRJP1.node[32].app 	outOfOrderPk:sum(packetBytes) 	2560
attr interpolationmode  none
attr source  outOfOrderPk
attr title  "packets received out of order, sum(packetBytes)"
scalar scenarioPRJP1.node[32].app 	rcvdPk:count 	30
attr interpolationmode  none
attr source  rcvdPk
attr title  "packets received, count"
scalar scenarioPRJP1.node[32].app 	rcvdPk:sum(packetBytes) 	15360
attr interpolationmode  none
attr source  rcvdPk
attr title  "packets received, sum(packetBytes)"
statistic scenarioPRJP1.node[32].app 	endToEndDelay:histogram
field count 30
field mean 2.9820744960715
field stddev 5.093640032266
field sum 89.462234882145
field sqrsum 1019.1929435744
field min 0.001320496882
field max 17.14934815457
attr interpolationmode  none
attr source  messageAge(rcvdPk)
attr title  "delay, histogram"
attr unit  s
bin	-INF	0
bin	-8.572693331962	0
bin	-7.4294914881161	0
bin	-6.2862896442703	0
bin	-5.1430878004244	0
bin	-3.9998859565785	0
bin	-2.8566841127327	0
bin	-1.7134822688868	0
bin	-0.57028042504094	16
bin	0.57292141880493	3
bin	1.7161232626508	3
bin	2.8593251064967	2
bin	4.0025269503425	1
bin	5.1457287941884	0
bin	6.2889306380343	0
bin	7.4321324818801	0
bin	8.575334325726	1
bin	9.7185361695719	0
bin	10.861738013418	0
bin	12.004939857264	1
bin	13.148141701109	1
bin	14.291343544955	0
bin	15.434545388801	1
bin	16.577747232647	1
bin	17.720949076493	0
bin	18.864150920339	0
bin	20.007352764185	0
bin	21.150554608031	0
bin	22.293756451876	0
bin	23.436958295722	0
bin	24.580160139568	0
bin	25.723361983414	0
scalar scenarioPRJP1.node[32].app 	sentPk:count 	616
attr interpolationmode  none
attr source  sentPk
attr title  "packets sent, count"
scalar scenarioPRJP1.node[32].app 	sentPk:sum(packetBytes) 	315392
attr interpolationmode  none
attr source  sentPk
attr title  "packets sent, sum(packetBytes)"
scalar scenarioPRJP1.node[32].udp 	droppedPkBadChecksum:count 	0
attr interpolationmode  none
attr title  "packets dropped (checksum error), count"
scalar scenarioPRJP1.node[32].udp 	droppedPkWrongPort:count 	0
attr interpolationmode  none
attr title  "packets dropped (wrong port), count"
scalar scenarioPRJP1.node[32].udp 	passedUpPk:count 	37
attr interpolationmode  none
attr title  "packets passed up, count"
scalar scenarioPRJP1.node[32].udp 	rcvdPk:count 	37
attr interpolationmode  none
attr source  rcvdPk
attr title  "packets received, count"
scalar scenarioPRJP1.node[32].udp 	rcvdPk:sum(packetBytes) 	19240
attr interpolationmode  none
attr source  rcvdPk
attr title  "packets received, sum(packetBytes)"
scalar scenarioPRJP1.node[32].udp 	sentPk:count 	616
attr interpolationmode  none
attr source  sentPk
attr title  "packets sent, count"
scalar scenarioPRJP1.node[32].udp 	sentPk:sum(packetBytes) 	320320
attr interpolationmode  none
attr source  sentPk
attr title  "packets sent, sum(packetBytes)"
scalar scenarioPRJP1.node[32].networkLayer.arp 	failedARPResolution:count 	2
attr title  "ARP failed resolutions, count"
scalar scenarioPRJP1.node[32].networkLayer.arp 	completedARPResolution:count 	236
attr title  "ARP completed resolutions, count"
scalar scenarioPRJP1.node[32].networkLayer.arp 	initiatedARPResolution:count 	20
attr title  "ARP initiated resolutions, count"
scalar scenarioPRJP1.node[32].networkLayer.arp 	sentReply:count 	20
attr title  "ARP replies sent, count"
scalar scenarioPRJP1.node[32].networkLayer.arp 	sentReq:count 	32
attr title  "ARP request sent, count"
scalar scenarioPRJP1.node[32].mobility 	startTime 	2.5
scalar scenarioPRJP1.node[32].mobility 	totalTime 	244.7
scalar scenarioPRJP1.node[32].mobility 	stopTime 	247.3
scalar scenarioPRJP1.node[32].mobility 	minSpeed 	2.4756855741553e-13
scalar scenarioPRJP1.node[32].mobility 	maxSpeed 	16.946888481136
scalar scenarioPRJP1.node[32].mobility 	totalDistance 	2234.0978035294
scalar scenarioPRJP1.node[32].mobility 	totalCO2Emission 	639.14460112666
scalar scenarioPRJP1.node[32].wlan.mgmt 	dataQueueLen:max 	68
attr interpolationmode  sample-hold
attr title  "data queue length, max"
scalar scenarioPRJP1.node[32].wlan.mgmt 	dataQueueLen:timeavg 	0.75890950261019
attr interpolationmode  sample-hold
attr title  "data queue length, timeavg"
scalar scenarioPRJP1.node[32].wlan.mgmt 	dropPkByQueue:count 	0
attr interpolationmode  none
attr source  dropPkByQueue
attr title  "packets dropped by queue, count"
scalar scenarioPRJP1.node[32].wlan.mgmt 	dropPkByQueue:sum(packetBytes) 	0
attr interpolationmode  none
attr source  dropPkByQueue
attr title  "packets dropped by queue, sum(packetBytes)"
scalar scenarioPRJP1.node[32].wlan.mac 	"number of received packets" 	3842
scalar scenarioPRJP1.node[32].wlan.mac 	"number of collisions" 	25900
scalar scenarioPRJP1.node[32].wlan.mac 	"number of internal collisions" 	0
scalar scenarioPRJP1.node[32].wlan.mac 	"number of retry for AC 0" 	8669
scalar scenarioPRJP1.node[32].wlan.mac 	"number of retry for AC 1" 	0
scalar scenarioPRJP1.node[32].wlan.mac 	"number of retry for AC 2" 	0
scalar scenarioPRJP1.node[32].wlan.mac 	"number of retry for AC 3" 	0
scalar scenarioPRJP1.node[32].wlan.mac 	"sent and received bits" 	7775072
scalar scenarioPRJP1.node[32].wlan.mac 	"sent packet within AC 0" 	1749
scalar scenarioPRJP1.node[32].wlan.mac 	"sent packet within AC 1" 	0
scalar scenarioPRJP1.node[32].wlan.mac 	"sent packet within AC 2" 	0
scalar scenarioPRJP1.node[32].wlan.mac 	"sent packet within AC 3" 	0
scalar scenarioPRJP1.node[32].wlan.mac 	"sent in TXOP " 	0
scalar scenarioPRJP1.node[32].wlan.mac 	"sentWithoutRetry AC 0" 	1594
scalar scenarioPRJP1.node[32].wlan.mac 	"sentWithoutRetry AC 1" 	0
scalar scenarioPRJP1.node[32].wlan.mac 	"sentWithoutRetry AC 2" 	0
scalar scenarioPRJP1.node[32].wlan.mac 	"sentWithoutRetry AC 3" 	0
scalar scenarioPRJP1.node[32].wlan.mac 	"numGivenUp AC 0" 	1394
scalar scenarioPRJP1.node[32].wlan.mac 	"numGivenUp AC 1" 	0
scalar scenarioPRJP1.node[32].wlan.mac 	"numGivenUp AC 2" 	0
scalar scenarioPRJP1.node[32].wlan.mac 	"numGivenUp AC 3" 	0
scalar scenarioPRJP1.node[32].wlan.mac 	"numDropped AC 0" 	265
scalar scenarioPRJP1.node[32].wlan.mac 	"numDropped AC 1" 	0
scalar scenarioPRJP1.node[32].wlan.mac 	"numDropped AC 2" 	0
scalar scenarioPRJP1.node[32].wlan.mac 	"numDropped AC 3" 	0
scalar scenarioPRJP1.node[32].wlan.mac 	rcvdPkFromLL:count 	119551
attr interpolationmode  none
attr source  packetReceivedFromLower
attr title  "packets received from lower layer, count"
scalar scenarioPRJP1.node[32].wlan.mac 	rcvdPkFromLL:sum(packetBytes) 	24923176
attr interpolationmode  none
attr source  packetReceivedFromLower
attr title  "packets received from lower layer, sum(packetBytes)"
scalar scenarioPRJP1.node[32].wlan.mac 	sentDownPk:count 	22474
attr interpolationmode  none
attr source  packetSentToLower
attr title  "packets sent to lower layer, count"
scalar scenarioPRJP1.node[32].wlan.mac 	sentDownPk:sum(packetBytes) 	4591316
attr interpolationmode  none
attr source  packetSentToLower
attr title  "packets sent to lower layer, sum(packetBytes)"
scalar scenarioPRJP1.node[32].wlan.mac 	rcvdPkFromHL:count 	10228
attr interpolationmode  none
attr source  packetReceivedFromUpper
attr title  "packets received from higher layer, count"
scalar scenarioPRJP1.node[32].wlan.mac 	rcvdPkFromHL:sum(packetBytes) 	1525072
attr interpolationmode  none
attr source  packetReceivedFromUpper
attr title  "packets received from higher layer, sum(packetBytes)"
scalar scenarioPRJP1.node[32].wlan.mac 	passedUpPk:count 	27895
attr interpolationmode  none
attr source  packetSentToUpper
attr title  "packets passed to higher layer, count"
scalar scenarioPRJP1.node[32].wlan.mac 	passedUpPk:sum(packetBytes) 	2453836
attr interpolationmode  none
attr source  packetSentToUpper
attr title  "packets passed to higher layer, sum(packetBytes)"
statistic scenarioPRJP1.node[32].wlan.radio 	radioChannel:histogram
field count 1
field mean 3
field stddev -nan
field sum 3
field sqrsum 9
field min 3
field max 3
attr interpolationmode  sample-hold
attr source  radioChannelChanged
attr title  "Radio channel, histogram"
bin	-INF	0
bin	2	0
bin	3	1
bin	4	0
scalar scenarioPRJP1.node[32].wlan.radio 	transmissionState:count 	89896
attr interpolationmode  sample-hold
attr source  transmissionStateChanged
attr title  "Radio transmission state, count"
scalar scenarioPRJP1.node[32].wlan.radio 	receptionState:count 	288860
attr interpolationmode  sample-hold
attr source  receptionStateChanged
attr title  "Radio reception state, count"
scalar scenarioPRJP1.node[32].wlan.radio 	radioMode:count 	44950
attr interpolationmode  sample-hold
attr source  radioModeChanged
attr title  "Radio mode, count"
statistic scenarioPRJP1.node[32].wlan.radio 	symbolErrorRate:histogram
field count 0
field mean -nan
field stddev -nan
field sum 0
field sqrsum 0
field min -nan
field max -nan
attr source  symbolErrorRate
attr title  "Symbol error rate, histogram"
bin	-INF	0
bin	-0.5	0
bin	-0.46666666666667	0
bin	-0.43333333333333	0
bin	-0.4	0
bin	-0.36666666666667	0
bin	-0.33333333333333	0
bin	-0.3	0
bin	-0.26666666666667	0
bin	-0.23333333333333	0
bin	-0.2	0
bin	-0.16666666666667	0
bin	-0.13333333333333	0
bin	-0.1	0
bin	-0.066666666666667	0
bin	-0.033333333333333	0
bin	0	0
bin	0.033333333333333	0
bin	0.066666666666667	0
bin	0.1	0
bin	0.13333333333333	0
bin	0.16666666666667	0
bin	0.2	0
bin	0.23333333333333	0
bin	0.26666666666667	0
bin	0.3	0
bin	0.33333333333333	0
bin	0.36666666666667	0
bin	0.4	0
bin	0.43333333333333	0
bin	0.46666666666667	0
bin	0.5	0
statistic scenarioPRJP1.node[32].wlan.radio 	bitErrorRate:histogram
field count 0
field mean -nan
field stddev -nan
field sum 0
field sqrsum 0
field min -nan
field max -nan
attr source  bitErrorRate
attr title  "Bit error rate, histogram"
bin	-INF	0
bin	-0.5	0
bin	-0.46666666666667	0
bin	-0.43333333333333	0
bin	-0.4	0
bin	-0.36666666666667	0
bin	-0.33333333333333	0
bin	-0.3	0
bin	-0.26666666666667	0
bin	-0.23333333333333	0
bin	-0.2	0
bin	-0.16666666666667	0
bin	-0.13333333333333	0
bin	-0.1	0
bin	-0.066666666666667	0
bin	-0.033333333333333	0
bin	0	0
bin	0.033333333333333	0
bin	0.066666666666667	0
bin	0.1	0
bin	0.13333333333333	0
bin	0.16666666666667	0
bin	0.2	0
bin	0.23333333333333	0
bin	0.26666666666667	0
bin	0.3	0
bin	0.33333333333333	0
bin	0.36666666666667	0
bin	0.4	0
bin	0.43333333333333	0
bin	0.46666666666667	0
bin	0.5	0
statistic scenarioPRJP1.node[32].wlan.radio 	packetErrorRate:histogram
field count 119551
field mean 0.19718342365765
field stddev 0.38846503190145
field sum 23573.475481695
field sqrsum 22689.001037759
field min 0
field max 1
attr source  packetErrorRate
attr title  "Packet error rate, histogram"
bin	-INF	0
bin	-0.5	0
bin	-0.43333333333333	0
bin	-0.36666666666667	0
bin	-0.3	0
bin	-0.23333333333333	0
bin	-0.16666666666667	0
bin	-0.1	0
bin	-0.033333333333333	92375
bin	0.033333333333333	1474
bin	0.1	712
bin	0.16666666666667	455
bin	0.23333333333333	401
bin	0.3	320
bin	0.36666666666667	267
bin	0.43333333333333	263
bin	0.5	230
bin	0.56666666666667	212
bin	0.63333333333333	248
bin	0.7	256
bin	0.76666666666667	250
bin	0.83333333333333	307
bin	0.9	470
bin	0.96666666666667	21311
bin	1.0333333333333	0
bin	1.1	0
bin	1.1666666666667	0
bin	1.2333333333333	0
bin	1.3	0
bin	1.3666666666667	0
bin	1.4333333333333	0
bin	1.5	0
statistic scenarioPRJP1.node[32].wlan.radio 	minSNIR:histogram
field count 119551
field mean 2482.0307858772
field stddev 19280.1527572
field sum 296729262.48241
field sqrsum 45176130074816
field min 0.00016758586032408
field max 753239.71923443
attr source  minSNIR
attr title  "Min SNIR, histogram"
bin	-INF	0
bin	-148.72590793637	0
bin	-128.70771449396	0
bin	-108.68952105156	0
bin	-88.671327609155	0
bin	-68.653134166751	0
bin	-48.634940724348	0
bin	-28.616747281944	0
bin	-8.5985538395403	52808
bin	11.419639602863	17108
bin	31.437833045267	5226
bin	51.456026487671	3172
bin	71.474219930074	2265
bin	91.492413372478	1917
bin	111.51060681488	1745
bin	131.52880025729	1668
bin	151.54699369969	1473
bin	171.56518714209	1257
bin	191.5833805845	1090
bin	211.6015740269	1090
bin	231.6197674693	878
bin	251.63796091171	763
bin	271.65615435411	621
bin	291.67434779651	579
bin	311.69254123892	467
bin	331.71073468132	421
bin	351.72892812373	429
bin	371.74712156613	341
bin	391.76531500853	318
bin	411.78350845094	283
bin	431.80170189334	273
bin	451.81989533574	23359
scalar scenarioPRJP1.node[32].lo0.lo 	droppedPkBitError:count 	0
attr interpolationmode  none
attr source  dropPkBitError
attr title  "packets dropped/bit error, count"
scalar scenarioPRJP1.node[32].lo0.lo 	droppedPkBitError:sum(packetBytes) 	0
attr interpolationmode  none
attr source  dropPkBitError
attr title  "packets dropped/bit error, sum(packetBytes)"
scalar scenarioPRJP1.node[32].lo0.lo 	rcvdPkFromHL:count 	37
attr interpolationmode  none
attr source  packetReceivedFromUpper
attr title  "packets received from higher layer, count"
scalar scenarioPRJP1.node[32].lo0.lo 	rcvdPkFromHL:sum(packetBytes) 	19240
attr interpolationmode  none
attr source  packetReceivedFromUpper
attr title  "packets received from higher layer, sum(packetBytes)"
scalar scenarioPRJP1.node[32].lo0.lo 	passedUpPk:count 	37
attr interpolationmode  none
attr source  packetSentToUpper
attr title  "packets passed to higher layer, count"
scalar scenarioPRJP1.node[32].lo0.lo 	passedUpPk:sum(packetBytes) 	19240
attr interpolationmode  none
attr source  packetSentToUpper
attr title  "packets passed to higher layer, sum(packetBytes)"
scalar scenarioPRJP1.node[89].app 	"Total sent" 	738
scalar scenarioPRJP1.node[89].app 	"Total received" 	45
scalar scenarioPRJP1.node[89].app 	"Total deleted" 	3
scalar scenarioPRJP1.node[89].app 	dropPk:count 	3
attr interpolationmode  none
attr source  dropPk
attr title  "packets dropped, count"
scalar scenarioPRJP1.node[89].app 	dropPk:sum(packetBytes) 	1536
attr interpolationmode  none
attr source  dropPk
attr title  "packets dropped, sum(packetBytes)"
scalar scenarioPRJP1.node[89].app 	outOfOrderPk:count 	15
attr interpolationmode  none
attr source  outOfOrderPk
attr title  "packets received out of order, count"
scalar scenarioPRJP1.node[89].app 	outOfOrderPk:sum(packetBytes) 	7680
attr interpolationmode  none
attr source  outOfOrderPk
attr title  "packets received out of order, sum(packetBytes)"
scalar scenarioPRJP1.node[89].app 	rcvdPk:count 	45
attr interpolationmode  none
attr source  rcvdPk
attr title  "packets received, count"
scalar scenarioPRJP1.node[89].app 	rcvdPk:sum(packetBytes) 	23040
attr interpolationmode  none
attr source  rcvdPk
attr title  "packets received, sum(packetBytes)"
statistic scenarioPRJP1.node[89].app 	endToEndDelay:histogram
field count 45
field mean 1.1901389409566
field stddev 2.7489348020429
field sum 53.556252343049
field sqrsum 396.231653464
field min 0.002037294367
field max 16.688970407873
attr interpolationmode  none
attr source  messageAge(rcvdPk)
attr title  "delay, histogram"
attr unit  s
bin	-INF	0
bin	-8.341429262386	0
bin	-7.2289670548189	0
bin	-6.1165048472519	0
bin	-5.0040426396848	0
bin	-3.8915804321177	0
bin	-2.7791182245507	0
bin	-1.6666560169836	0
bin	-0.55419380941653	29
bin	0.55826839815053	8
bin	1.6707306057176	3
bin	2.7831928132847	2
bin	3.8956550208517	0
bin	5.0081172284188	2
bin	6.1205794359859	0
bin	7.2330416435529	0
bin	8.34550385112	0
bin	9.4579660586871	0
bin	10.570428266254	0
bin	11.682890473821	0
bin	12.795352681388	0
bin	13.907814888955	0
bin	15.020277096522	0
bin	16.132739304089	1
bin	17.245201511657	0
bin	18.357663719224	0
bin	19.470125926791	0
bin	20.582588134358	0
bin	21.695050341925	0
bin	22.807512549492	0
bin	23.919974757059	0
bin	25.032436964626	0
scalar scenarioPRJP1.node[89].app 	sentPk:count 	738
attr interpolationmode  none
attr source  sentPk
attr title  "packets sent, count"
scalar scenarioPRJP1.node[89].app 	sentPk:sum(packetBytes) 	377856
attr interpolationmode  none
attr source  sentPk
attr title  "packets sent, sum(packetBytes)"
scalar scenarioPRJP1.node[89].udp 	droppedPkBadChecksum:count 	0
attr interpolationmode  none
attr title  "packets dropped (checksum error), count"
scalar scenarioPRJP1.node[89].udp 	droppedPkWrongPort:count 	0
attr interpolationmode  none
attr title  "packets dropped (wrong port), count"
scalar scenarioPRJP1.node[89].udp 	passedUpPk:count 	63
attr interpolationmode  none
attr title  "packets passed up, count"
scalar scenarioPRJP1.node[89].udp 	rcvdPk:count 	63
attr interpolationmode  none
attr source  rcvdPk
attr title  "packets received, count"
scalar scenarioPRJP1.node[89].udp 	rcvdPk:sum(packetBytes) 	32760
attr interpolationmode  none
attr source  rcvdPk
attr title  "packets received, sum(packetBytes)"
scalar scenarioPRJP1.node[89].udp 	sentPk:count 	738
attr interpolationmode  none
attr source  sentPk
attr title  "packets sent, count"
scalar scenarioPRJP1.node[89].udp 	sentPk:sum(packetBytes) 	383760
attr interpolationmode  none
attr source  sentPk
attr title  "packets sent, sum(packetBytes)"
scalar scenarioPRJP1.node[89].networkLayer.arp 	failedARPResolution:count 	20
attr title  "ARP failed resolutions, count"
scalar scenarioPRJP1.node[89].networkLayer.arp 	completedARPResolution:count 	364
attr title  "ARP completed resolutions, count"
scalar scenarioPRJP1.node[89].networkLayer.arp 	initiatedARPResolution:count 	52
attr title  "ARP initiated resolutions, count"
scalar scenarioPRJP1.node[89].networkLayer.arp 	sentReply:count 	21
attr title  "ARP replies sent, count"
scalar scenarioPRJP1.node[89].networkLayer.arp 	sentReq:count 	101
attr title  "ARP request sent, count"
scalar scenarioPRJP1.node[89].mobility 	startTime 	9.7
scalar scenarioPRJP1.node[89].mobility 	totalTime 	276
scalar scenarioPRJP1.node[89].mobility 	stopTime 	285.8
scalar scenarioPRJP1.node[89].mobility 	minSpeed 	2.4766852046899e-13
scalar scenarioPRJP1.node[89].mobility 	maxSpeed 	16.632556062782
scalar scenarioPRJP1.node[89].mobility 	totalDistance 	2202.2084386284
scalar scenarioPRJP1.node[89].mobility 	totalCO2Emission 	661.20691326281
scalar scenarioPRJP1.node[89].wlan.mgmt 	dataQueueLen:max 	100
attr interpolationmode  sample-hold
attr title  "data queue length, max"
scalar scenarioPRJP1.node[89].wlan.mgmt 	dataQueueLen:timeavg 	2.6680307115692
attr interpolationmode  sample-hold
attr title  "data queue length, timeavg"
scalar scenarioPRJP1.node[89].wlan.mgmt 	dropPkByQueue:count 	237
attr interpolationmode  none
attr source  dropPkByQueue
attr title  "packets dropped by queue, count"
scalar scenarioPRJP1.node[89].wlan.mgmt 	dropPkByQueue:sum(packetBytes) 	48928
attr interpolationmode  none
attr source  dropPkByQueue
attr title  "packets dropped by queue, sum(packetBytes)"
scalar scenarioPRJP1.node[89].wlan.mac 	"number of received packets" 	4649
scalar scenarioPRJP1.node[89].wlan.mac 	"number of collisions" 	48752
scalar scenarioPRJP1.node[89].wlan.mac 	"number of internal collisions" 	0
scalar scenarioPRJP1.node[89].wlan.mac 	"number of retry for AC 0" 	10912
scalar scenarioPRJP1.node[89].wlan.mac 	"number of retry for AC 1" 	0
scalar scenarioPRJP1.node[89].wlan.mac 	"number of retry for AC 2" 	0
scalar scenarioPRJP1.node[89].wlan.mac 	"number of retry for AC 3" 	0
scalar scenarioPRJP1.node[89].wlan.mac 	"sent and received bits" 	10645280
scalar scenarioPRJP1.node[89].wlan.mac 	"sent packet within AC 0" 	2972
scalar scenarioPRJP1.node[89].wlan.mac 	"sent packet within AC 1" 	0
scalar scenarioPRJP1.node[89].wlan.mac 	"sent packet within AC 2" 	0
scalar scenarioPRJP1.node[89].wlan.mac 	"sent packet within AC 3" 	0
scalar scenarioPRJP1.node[89].wlan.mac 	"sent in TXOP " 	0
scalar scenarioPRJP1.node[89].wlan.mac 	"sentWithoutRetry AC 0" 	2639
scalar scenarioPRJP1.node[89].wlan.mac 	"sentWithoutRetry AC 1" 	0
scalar scenarioPRJP1.node[89].wlan.mac 	"sentWithoutRetry AC 2" 	0
scalar scenarioPRJP1.node[89].wlan.mac 	"sentWithoutRetry AC 3" 	0
scalar scenarioPRJP1.node[89].wlan.mac 	"numGivenUp AC 0" 	1710
scalar scenarioPRJP1.node[89].wlan.mac 	"numGivenUp AC 1" 	0
scalar scenarioPRJP1.node[89].wlan.mac 	"numGivenUp AC 2" 	0
scalar scenarioPRJP1.node[89].wlan.mac 	"numGivenUp AC 3" 	0
scalar scenarioPRJP1.node[89].wlan.mac 	"numDropped AC 0" 	422
scalar scenarioPRJP1.node[89].wlan.mac 	"numDropped AC 1" 	0
scalar scenarioPRJP1.node[89].wlan.mac 	"numDropped AC 2" 	0
scalar scenarioPRJP1.node[89].wlan.mac 	"numDropped AC 3" 	0
scalar scenarioPRJP1.node[89].wlan.mac 	rcvdPkFromLL:count 	195539
attr interpolationmode  none
attr source  packetReceivedFromLower
attr title  "packets received from lower layer, count"
scalar scenarioPRJP1.node[89].wlan.mac 	rcvdPkFromLL:sum(packetBytes) 	43353118
attr interpolationmode  none
attr source  packetReceivedFromLower
attr title  "packets received from lower layer, sum(packetBytes)"
scalar scenarioPRJP1.node[89].wlan.mac 	sentDownPk:count 	27223
attr interpolationmode  none
attr source  packetSentToLower
attr title  "packets sent to lower layer, count"
scalar scenarioPRJP1.node[89].wlan.mac 	sentDownPk:sum(packetBytes) 	5540470
attr interpolationmode  none
attr source  packetSentToLower
attr title  "packets sent to lower layer, sum(packetBytes)"
scalar scenarioPRJP1.node[89].wlan.mac 	rcvdPkFromHL:count 	12092
attr interpolationmode  none
attr source  packetReceivedFromUpper
attr title  "packets received from higher layer, count"
scalar scenarioPRJP1.node[89].wlan.mac 	rcvdPkFromHL:sum(packetBytes) 	1976564
attr interpolationmode  none
attr source  packetReceivedFromUpper
attr title  "packets received from higher layer, sum(packetBytes)"
scalar scenarioPRJP1.node[89].wlan.mac 	passedUpPk:count 	35624
attr interpolationmode  none
attr source  packetSentToUpper
attr title  "packets passed to higher layer, count"
scalar scenarioPRJP1.node[89].wlan.mac 	passedUpPk:sum(packetBytes) 	3214424
attr interpolationmode  none
attr source  packetSentToUpper
attr title  "packets passed to higher layer, sum(packetBytes)"
statistic scenarioPRJP1.node[89].wlan.radio 	radioChannel:histogram
field count 1
field mean 3
field stddev -nan
field sum 3
field sqrsum 9
field min 3
field max 3
attr interpolationmode  sample-hold
attr source  radioChannelChanged
attr title  "Radio channel, histogram"
bin	-INF	0
bin	2	0
bin	3	1
bin	4	0
scalar scenarioPRJP1.node[89].wlan.radio 	transmissionState:count 	108892
attr interpolationmode  sample-hold
attr source  transmissionStateChanged
attr title  "Radio transmission state, count"
scalar scenarioPRJP1.node[89].wlan.radio 	receptionState:count 	459667
attr interpolationmode  sample-hold
attr source  receptionStateChanged
attr title  "Radio reception state, count"
scalar scenarioPRJP1.node[89].wlan.radio 	radioMode:count 	54448
attr interpolationmode  sample-hold
attr source  radioModeChanged
attr title  "Radio mode, count"
statistic scenarioPRJP1.node[89].wlan.radio 	symbolErrorRate:histogram
field count 0
field mean -nan
field stddev -nan
field sum 0
field sqrsum 0
field min -nan
field max -nan
[...]
attr source  packetSentToUpper
attr title  "packets passed to higher layer, count"
scalar scenarioPRJP1.node[76].wlan.mac 	passedUpPk:sum(packetBytes) 	4863908
attr interpolationmode  none
attr source  packetSentToUpper
attr title  "packets passed to higher layer, sum(packetBytes)"
statistic scenarioPRJP1.node[76].wlan.radio 	radioChannel:histogram
field count 1
field mean 3
field stddev -nan
field sum 3
field sqrsum 9
field min 3
field max 3
attr interpolationmode  sample-hold
attr source  radioChannelChanged
attr title  "Radio channel, histogram"
bin	-INF	0
bin	2	0
bin	3	1
bin	4	0
scalar scenarioPRJP1.node[76].wlan.radio 	transmissionState:count 	227480
attr interpolationmode  sample-hold
attr source  transmissionStateChanged
attr title  "Radio transmission state, count"
scalar scenarioPRJP1.node[76].wlan.radio 	receptionState:count 	675773
attr interpolationmode  sample-hold
attr source  receptionStateChanged
attr title  "Radio reception state, count"
scalar scenarioPRJP1.node[76].wlan.radio 	radioMode:count 	113742
attr interpolationmode  sample-hold
attr source  radioModeChanged
attr title  "Radio mode, count"
statistic scenarioPRJP1.node[76].wlan.radio 	symbolErrorRate:histogram
field count 0
field mean -nan
field stddev -nan
field sum 0
field sqrsum 0
field min -nan
field max -nan
attr source  symbolErrorRate
attr title  "Symbol error rate, histogram"
bin	-INF	0
bin	-0.5	0
bin	-0.46666666666667	0
bin	-0.43333333333333	0
bin	-0.4	0
bin	-0.36666666666667	0
bin	-0.33333333333333	0
bin	-0.3	0
bin	-0.26666666666667	0
bin	-0.23333333333333	0
bin	-0.2	0
bin	-0.16666666666667	0
bin	-0.13333333333333	0
bin	-0.1	0
bin	-0.066666666666667	0
bin	-0.033333333333333	0
bin	0	0
bin	0.033333333333333	0
bin	0.066666666666667	0
bin	0.1	0
bin	0.13333333333333	0
bin	0.16666666666667	0
bin	0.2	0
bin	0.23333333333333	0
bin	0.26666666666667	0
bin	0.3	0
bin	0.33333333333333	0
bin	0.36666666666667	0
bin	0.4	0
bin	0.43333333333333	0
bin	0.46666666666667	0
bin	0.5	0
statistic scenarioPRJP1.node[76].wlan.radio 	bitErrorRate:histogram
field count 0
field mean -nan
field stddev -nan
field sum 0
field sqrsum 0
field min -nan
field max -nan
attr source  bitErrorRate
attr title  "Bit error rate, histogram"
bin	-INF	0
bin	-0.5	0
bin	-0.46666666666667	0
bin	-0.43333333333333	0
bin	-0.4	0
bin	-0.36666666666667	0
bin	-0.33333333333333	0
bin	-0.3	0
bin	-0.26666666666667	0
bin	-0.23333333333333	0
bin	-0.2	0
bin	-0.16666666666667	0
bin	-0.13333333333333	0
bin	-0.1	0
bin	-0.066666666666667	0
bin	-0.033333333333333	0
bin	0	0
bin	0.033333333333333	0
bin	0.066666666666667	0
bin	0.1	0
bin	0.13333333333333	0
bin	0.16666666666667	0
bin	0.2	0
bin	0.23333333333333	0
bin	0.26666666666667	0
bin	0.3	0
bin	0.33333333333333	0
bin	0.36666666666667	0
bin	0.4	0
bin	0.43333333333333	0
bin	0.46666666666667	0
bin	0.5	0
statistic scenarioPRJP1.node[76].wlan.radio 	packetErrorRate:histogram
field count 272914
field mean 0.20818166996781
field stddev 0.3967659048291
field sum 56815.692277594
field sqrsum 54790.818904899
field min 0
field max 1
attr source  packetErrorRate
attr title  "Packet error rate, histogram"
bin	-INF	0
bin	-0.5	0
bin	-0.43333333333333	0
bin	-0.36666666666667	0
bin	-0.3	0
bin	-0.23333333333333	0
bin	-0.16666666666667	0
bin	-0.1	0
bin	-0.033333333333333	207801
bin	0.033333333333333	3264
bin	0.1	1736
bin	0.16666666666667	1147
bin	0.23333333333333	864
bin	0.3	764
bin	0.36666666666667	613
bin	0.43333333333333	555
bin	0.5	593
bin	0.56666666666667	541
bin	0.63333333333333	500
bin	0.7	515
bin	0.76666666666667	563
bin	0.83333333333333	713
bin	0.9	1053
bin	0.96666666666667	51692
bin	1.0333333333333	0
bin	1.1	0
bin	1.1666666666667	0
bin	1.2333333333333	0
bin	1.3	0
bin	1.3666666666667	0
bin	1.4333333333333	0
bin	1.5	0
statistic scenarioPRJP1.node[76].wlan.radio 	minSNIR:histogram
field count 272914
field mean 3658.9308206708
field stddev 38359.041961609
field sum 998573445.99256
field sqrsum 4.0522229331553e+14
field min 0.00016970219563391
field max 872334.51621042
attr source  minSNIR
attr title  "Min SNIR, histogram"
bin	-INF	0
bin	-331.30985078586	0
bin	-287.00958062699	0
bin	-242.70931046812	0
bin	-198.40904030925	0
bin	-154.10877015038	0
bin	-109.80849999151	0
bin	-65.508229832641	0
bin	-21.207959673771	144478
bin	23.092310485099	33402
bin	67.392580643969	14436
bin	111.69285080284	10933
bin	155.99312096171	8330
bin	200.29339112058	5292
bin	244.59366127945	4141
bin	288.89393143832	3489
bin	333.19420159719	2620
bin	377.49447175606	2111
bin	421.79474191493	1674
bin	466.0950120738	1547
bin	510.39528223267	1296
bin	554.69555239154	1185
bin	598.99582255041	1025
bin	643.29609270928	997
bin	687.59636286815	1022
bin	731.89663302702	833
bin	776.19690318589	767
bin	820.49717334476	786
bin	864.79744350363	644
bin	909.09771366249	662
bin	953.39798382136	638
bin	997.69825398023	30606
scalar scenarioPRJP1.node[76].lo0.lo 	droppedPkBitError:count 	0
attr interpolationmode  none
attr source  dropPkBitError
attr title  "packets dropped/bit error, count"
scalar scenarioPRJP1.node[76].lo0.lo 	droppedPkBitError:sum(packetBytes) 	0
attr interpolationmode  none
attr source  dropPkBitError
attr title  "packets dropped/bit error, sum(packetBytes)"
scalar scenarioPRJP1.node[76].lo0.lo 	rcvdPkFromHL:count 	94
attr interpolationmode  none
attr source  packetReceivedFromUpper
attr title  "packets received from higher layer, count"
scalar scenarioPRJP1.node[76].lo0.lo 	rcvdPkFromHL:sum(packetBytes) 	48880
attr interpolationmode  none
attr source  packetReceivedFromUpper
attr title  "packets received from higher layer, sum(packetBytes)"
scalar scenarioPRJP1.node[76].lo0.lo 	passedUpPk:count 	94
attr interpolationmode  none
attr source  packetSentToUpper
attr title  "packets passed to higher layer, count"
scalar scenarioPRJP1.node[76].lo0.lo 	passedUpPk:sum(packetBytes) 	48880
attr interpolationmode  none
attr source  packetSentToUpper
attr title  "packets passed to higher layer, sum(packetBytes)"
scalar scenarioPRJP1.node[99].app 	"Total sent" 	2612
scalar scenarioPRJP1.node[99].app 	"Total received" 	98
scalar scenarioPRJP1.node[99].app 	"Total deleted" 	3
scalar scenarioPRJP1.node[99].app 	dropPk:count 	3
attr interpolationmode  none
attr source  dropPk
attr title  "packets dropped, count"
scalar scenarioPRJP1.node[99].app 	dropPk:sum(packetBytes) 	1536
attr interpolationmode  none
attr source  dropPk
attr title  "packets dropped, sum(packetBytes)"
scalar scenarioPRJP1.node[99].app 	outOfOrderPk:count 	6
attr interpolationmode  none
attr source  outOfOrderPk
attr title  "packets received out of order, count"
scalar scenarioPRJP1.node[99].app 	outOfOrderPk:sum(packetBytes) 	3072
attr interpolationmode  none
attr source  outOfOrderPk
attr title  "packets received out of order, sum(packetBytes)"
scalar scenarioPRJP1.node[99].app 	rcvdPk:count 	98
attr interpolationmode  none
attr source  rcvdPk
attr title  "packets received, count"
scalar scenarioPRJP1.node[99].app 	rcvdPk:sum(packetBytes) 	50176
attr interpolationmode  none
attr source  rcvdPk
attr title  "packets received, sum(packetBytes)"
statistic scenarioPRJP1.node[99].app 	endToEndDelay:histogram
field count 98
field mean 0.72550812654869
field stddev 2.1724572639349
field sum 71.099796401772
field sqrsum 509.38182475693
field min 0.001003044905
field max 15.527787343666
attr interpolationmode  none
attr source  messageAge(rcvdPk)
attr title  "delay, histogram"
attr unit  s
bin	-INF	0
bin	-7.7623891044755	0
bin	-6.7272701512248	0
bin	-5.692151197974	0
bin	-4.6570322447233	0
bin	-3.6219132914726	0
bin	-2.5867943382218	0
bin	-1.5516753849711	0
bin	-0.51655643172037	78
bin	0.51856252153037	11
bin	1.5536814747811	3
bin	2.5888004280318	1
bin	3.6239193812826	1
bin	4.6590383345333	0
bin	5.694157287784	1
bin	6.7292762410348	1
bin	7.7643951942855	0
bin	8.7995141475362	0
bin	9.834633100787	0
bin	10.869752054038	1
bin	11.904871007288	0
bin	12.939989960539	0
bin	13.97510891379	0
bin	15.010227867041	1
bin	16.045346820291	0
bin	17.080465773542	0
bin	18.115584726793	0
bin	19.150703680044	0
bin	20.185822633294	0
bin	21.220941586545	0
bin	22.256060539796	0
bin	23.291179493046	0
scalar scenarioPRJP1.node[99].app 	sentPk:count 	2612
attr interpolationmode  none
attr source  sentPk
attr title  "packets sent, count"
scalar scenarioPRJP1.node[99].app 	sentPk:sum(packetBytes) 	1337344
attr interpolationmode  none
attr source  sentPk
attr title  "packets sent, sum(packetBytes)"
scalar scenarioPRJP1.node[99].udp 	droppedPkBadChecksum:count 	0
attr interpolationmode  none
attr title  "packets dropped (checksum error), count"
scalar scenarioPRJP1.node[99].udp 	droppedPkWrongPort:count 	0
attr interpolationmode  none
attr title  "packets dropped (wrong port), count"
scalar scenarioPRJP1.node[99].udp 	passedUpPk:count 	107
attr interpolationmode  none
attr title  "packets passed up, count"
scalar scenarioPRJP1.node[99].udp 	rcvdPk:count 	107
attr interpolationmode  none
attr source  rcvdPk
attr title  "packets received, count"
scalar scenarioPRJP1.node[99].udp 	rcvdPk:sum(packetBytes) 	55640
attr interpolationmode  none
attr source  rcvdPk
attr title  "packets received, sum(packetBytes)"
scalar scenarioPRJP1.node[99].udp 	sentPk:count 	2612
attr interpolationmode  none
attr source  sentPk
attr title  "packets sent, count"
scalar scenarioPRJP1.node[99].udp 	sentPk:sum(packetBytes) 	1358240
attr interpolationmode  none
attr source  sentPk
attr title  "packets sent, sum(packetBytes)"
scalar scenarioPRJP1.node[99].networkLayer.arp 	failedARPResolution:count 	84
attr title  "ARP failed resolutions, count"
scalar scenarioPRJP1.node[99].networkLayer.arp 	completedARPResolution:count 	1410
attr title  "ARP completed resolutions, count"
scalar scenarioPRJP1.node[99].networkLayer.arp 	initiatedARPResolution:count 	191
attr title  "ARP initiated resolutions, count"
scalar scenarioPRJP1.node[99].networkLayer.arp 	sentReply:count 	57
attr title  "ARP replies sent, count"
scalar scenarioPRJP1.node[99].networkLayer.arp 	sentReq:count 	405
attr title  "ARP request sent, count"
scalar scenarioPRJP1.node[99].mobility 	startTime 	9.8
scalar scenarioPRJP1.node[99].mobility 	totalTime 	940.2
scalar scenarioPRJP1.node[99].mobility 	stopTime 	950
scalar scenarioPRJP1.node[99].mobility 	minSpeed 	2.4759308501257e-13
scalar scenarioPRJP1.node[99].mobility 	maxSpeed 	21.671969581012
scalar scenarioPRJP1.node[99].mobility 	totalDistance 	11153.389606326
scalar scenarioPRJP1.node[99].mobility 	totalCO2Emission 	3050.0269157773
scalar scenarioPRJP1.node[99].wlan.mgmt 	dataQueueLen:max 	16
attr interpolationmode  sample-hold
attr title  "data queue length, max"
scalar scenarioPRJP1.node[99].wlan.mgmt 	dataQueueLen:timeavg 	0.0073217231777441
attr interpolationmode  sample-hold
attr title  "data queue length, timeavg"
scalar scenarioPRJP1.node[99].wlan.mgmt 	dropPkByQueue:count 	0
attr interpolationmode  none
attr source  dropPkByQueue
attr title  "packets dropped by queue, count"
scalar scenarioPRJP1.node[99].wlan.mgmt 	dropPkByQueue:sum(packetBytes) 	0
attr interpolationmode  none
attr source  dropPkByQueue
attr title  "packets dropped by queue, sum(packetBytes)"
scalar scenarioPRJP1.node[99].wlan.mac 	"number of received packets" 	10145
scalar scenarioPRJP1.node[99].wlan.mac 	"number of collisions" 	71089
scalar scenarioPRJP1.node[99].wlan.mac 	"number of internal collisions" 	0
scalar scenarioPRJP1.node[99].wlan.mac 	"number of retry for AC 0" 	28932
scalar scenarioPRJP1.node[99].wlan.mac 	"number of retry for AC 1" 	0
scalar scenarioPRJP1.node[99].wlan.mac 	"number of retry for AC 2" 	0
scalar scenarioPRJP1.node[99].wlan.mac 	"number of retry for AC 3" 	0
scalar scenarioPRJP1.node[99].wlan.mac 	"sent and received bits" 	17368960
scalar scenarioPRJP1.node[99].wlan.mac 	"sent packet within AC 0" 	4087
scalar scenarioPRJP1.node[99].wlan.mac 	"sent packet within AC 1" 	0
scalar scenarioPRJP1.node[99].wlan.mac 	"sent packet within AC 2" 	0
scalar scenarioPRJP1.node[99].wlan.mac 	"sent packet within AC 3" 	0
scalar scenarioPRJP1.node[99].wlan.mac 	"sent in TXOP " 	0
scalar scenarioPRJP1.node[99].wlan.mac 	"sentWithoutRetry AC 0" 	3631
scalar scenarioPRJP1.node[99].wlan.mac 	"sentWithoutRetry AC 1" 	0
scalar scenarioPRJP1.node[99].wlan.mac 	"sentWithoutRetry AC 2" 	0
scalar scenarioPRJP1.node[99].wlan.mac 	"sentWithoutRetry AC 3" 	0
scalar scenarioPRJP1.node[99].wlan.mac 	"numGivenUp AC 0" 	4651
scalar scenarioPRJP1.node[99].wlan.mac 	"numGivenUp AC 1" 	0
scalar scenarioPRJP1.node[99].wlan.mac 	"numGivenUp AC 2" 	0
scalar scenarioPRJP1.node[99].wlan.mac 	"numGivenUp AC 3" 	0
scalar scenarioPRJP1.node[99].wlan.mac 	"numDropped AC 0" 	82
scalar scenarioPRJP1.node[99].wlan.mac 	"numDropped AC 1" 	0
scalar scenarioPRJP1.node[99].wlan.mac 	"numDropped AC 2" 	0
scalar scenarioPRJP1.node[99].wlan.mac 	"numDropped AC 3" 	0
scalar scenarioPRJP1.node[99].wlan.mac 	rcvdPkFromLL:count 	299960
attr interpolationmode  none
attr source  packetReceivedFromLower
attr title  "packets received from lower layer, count"
scalar scenarioPRJP1.node[99].wlan.mac 	rcvdPkFromLL:sum(packetBytes) 	76045490
attr interpolationmode  none
attr source  packetReceivedFromLower
attr title  "packets received from lower layer, sum(packetBytes)"
scalar scenarioPRJP1.node[99].wlan.mac 	sentDownPk:count 	61154
attr interpolationmode  none
attr source  packetSentToLower
attr title  "packets sent to lower layer, count"
scalar scenarioPRJP1.node[99].wlan.mac 	sentDownPk:sum(packetBytes) 	16226446
attr interpolationmode  none
attr source  packetSentToLower
attr title  "packets sent to lower layer, sum(packetBytes)"
scalar scenarioPRJP1.node[99].wlan.mac 	rcvdPkFromHL:count 	22159
attr interpolationmode  none
attr source  packetReceivedFromUpper
attr title  "packets received from higher layer, count"
scalar scenarioPRJP1.node[99].wlan.mac 	rcvdPkFromHL:sum(packetBytes) 	4105044
attr interpolationmode  none
attr source  packetReceivedFromUpper
attr title  "packets received from higher layer, sum(packetBytes)"
scalar scenarioPRJP1.node[99].wlan.mac 	passedUpPk:count 	52852
attr interpolationmode  none
attr source  packetSentToUpper
attr title  "packets passed to higher layer, count"
scalar scenarioPRJP1.node[99].wlan.mac 	passedUpPk:sum(packetBytes) 	5085416
attr interpolationmode  none
attr source  packetSentToUpper
attr title  "packets passed to higher layer, sum(packetBytes)"
statistic scenarioPRJP1.node[99].wlan.radio 	radioChannel:histogram
field count 1
field mean 3
field stddev -nan
field sum 3
field sqrsum 9
field min 3
field max 3
attr interpolationmode  sample-hold
attr source  radioChannelChanged
attr title  "Radio channel, histogram"
bin	-INF	0
bin	2	0
bin	3	1
bin	4	0
scalar scenarioPRJP1.node[99].wlan.radio 	transmissionState:count 	244616
attr interpolationmode  sample-hold
attr source  transmissionStateChanged
attr title  "Radio transmission state, count"
scalar scenarioPRJP1.node[99].wlan.radio 	receptionState:count 	743651
attr interpolationmode  sample-hold
attr source  receptionStateChanged
attr title  "Radio reception state, count"
scalar scenarioPRJP1.node[99].wlan.radio 	radioMode:count 	122310
attr interpolationmode  sample-hold
attr source  radioModeChanged
attr title  "Radio mode, count"
statistic scenarioPRJP1.node[99].wlan.radio 	symbolErrorRate:histogram
field count 0
field mean -nan
field stddev -nan
field sum 0
field sqrsum 0
field min -nan
field max -nan
attr source  symbolErrorRate
attr title  "Symbol error rate, histogram"
bin	-INF	0
bin	-0.5	0
bin	-0.46666666666667	0
bin	-0.43333333333333	0
bin	-0.4	0
bin	-0.36666666666667	0
bin	-0.33333333333333	0
bin	-0.3	0
bin	-0.26666666666667	0
bin	-0.23333333333333	0
bin	-0.2	0
bin	-0.16666666666667	0
bin	-0.13333333333333	0
bin	-0.1	0
bin	-0.066666666666667	0
bin	-0.033333333333333	0
bin	0	0
bin	0.033333333333333	0
bin	0.066666666666667	0
bin	0.1	0
bin	0.13333333333333	0
bin	0.16666666666667	0
bin	0.2	0
bin	0.23333333333333	0
bin	0.26666666666667	0
bin	0.3	0
bin	0.33333333333333	0
bin	0.36666666666667	0
bin	0.4	0
bin	0.43333333333333	0
bin	0.46666666666667	0
bin	0.5	0
statistic scenarioPRJP1.node[99].wlan.radio 	bitErrorRate:histogram
field count 0
field mean -nan
field stddev -nan
field sum 0
field sqrsum 0
field min -nan
field max -nan
attr source  bitErrorRate
attr title  "Bit error rate, histogram"
bin	-INF	0
bin	-0.5	0
bin	-0.46666666666667	0
bin	-0.43333333333333	0
bin	-0.4	0
bin	-0.36666666666667	0
bin	-0.33333333333333	0
bin	-0.3	0
bin	-0.26666666666667	0
bin	-0.23333333333333	0
bin	-0.2	0
bin	-0.16666666666667	0
bin	-0.13333333333333	0
bin	-0.1	0
bin	-0.066666666666667	0
bin	-0.033333333333333	0
bin	0	0
bin	0.033333333333333	0
bin	0.066666666666667	0
bin	0.1	0
bin	0.13333333333333	0
bin	0.16666666666667	0
bin	0.2	0
bin	0.23333333333333	0
bin	0.26666666666667	0
bin	0.3	0
bin	0.33333333333333	0
bin	0.36666666666667	0
bin	0.4	0
bin	0.43333333333333	0
bin	0.46666666666667	0
bin	0.5	0
statistic scenarioPRJP1.node[99].wlan.radio 	packetErrorRate:histogram
field count 299960
field mean 0.22099179017734
field stddev 0.4058447441967
field sum 66288.697381596
field sqrsum 64055.491712296
field min 0
field max 1
attr source  packetErrorRate
attr title  "Packet error rate, histogram"
bin	-INF	0
bin	-0.5	0
bin	-0.43333333333333	0
bin	-0.36666666666667	0
bin	-0.3	0
bin	-0.23333333333333	0
bin	-0.16666666666667	0
bin	-0.1	0
bin	-0.033333333333333	224515
bin	0.033333333333333	3717
bin	0.1	1784
bin	0.16666666666667	1260
bin	0.23333333333333	997
bin	0.3	803
bin	0.36666666666667	715
bin	0.43333333333333	628
bin	0.5	597
bin	0.56666666666667	548
bin	0.63333333333333	568
bin	0.7	588
bin	0.76666666666667	666
bin	0.83333333333333	817
bin	0.9	1191
bin	0.96666666666667	60566
bin	1.0333333333333	0
bin	1.1	0
bin	1.1666666666667	0
bin	1.2333333333333	0
bin	1.3	0
bin	1.3666666666667	0
bin	1.4333333333333	0
bin	1.5	0
statistic scenarioPRJP1.node[99].wlan.radio 	minSNIR:histogram
field count 299960
field mean 1269.2773676416
field stddev 15069.427888062
field sum 380732439.19777
field sqrsum 68600241536319
field min 0.000174827636177
field max 753239.71923432
attr source  minSNIR
attr title  "Min SNIR, histogram"
bin	-INF	0
bin	-1639.5093971609	0
bin	-1420.696206587	0
bin	-1201.8830160131	0
bin	-983.06982543915	0
bin	-764.25663486522	0
bin	-545.44344429129	0
bin	-326.63025371737	0
bin	-107.81706314344	215933
bin	110.99612743049	36796
bin	329.80931800442	10901
bin	548.62250857834	6367
bin	767.43569915227	4250
bin	986.2488897262	3024
bin	1205.0620803001	2348
bin	1423.8752708741	1724
bin	1642.688461448	1373
bin	1861.5016520219	1204
bin	2080.3148425958	1021
bin	2299.1280331698	840
bin	2517.9412237437	690
bin	2736.7544143176	663
bin	2955.5676048916	638
bin	3174.3807954655	481
bin	3393.1939860394	448
bin	3612.0071766133	422
bin	3830.8203671873	362
bin	4049.6335577612	337
bin	4268.4467483351	342
bin	4487.259938909	328
bin	4706.073129483	280
bin	4924.8863200569	9188
scalar scenarioPRJP1.node[99].lo0.lo 	droppedPkBitError:count 	0
attr interpolationmode  none
attr source  dropPkBitError
attr title  "packets dropped/bit error, count"
scalar scenarioPRJP1.node[99].lo0.lo 	droppedPkBitError:sum(packetBytes) 	0
attr interpolationmode  none
attr source  dropPkBitError
attr title  "packets dropped/bit error, sum(packetBytes)"
scalar scenarioPRJP1.node[99].lo0.lo 	rcvdPkFromHL:count 	107
attr interpolationmode  none
attr source  packetReceivedFromUpper
attr title  "packets received from higher layer, count"
scalar scenarioPRJP1.node[99].lo0.lo 	rcvdPkFromHL:sum(packetBytes) 	55640
attr interpolationmode  none
attr source  packetReceivedFromUpper
attr title  "packets received from higher layer, sum(packetBytes)"
scalar scenarioPRJP1.node[99].lo0.lo 	passedUpPk:count 	107
attr interpolationmode  none
attr source  packetSentToUpper
attr title  "packets passed to higher layer, count"
scalar scenarioPRJP1.node[99].lo0.lo 	passedUpPk:sum(packetBytes) 	55640
attr interpolationmode  none
attr source  packetSentToUpper
attr title  "packets passed to higher layer, sum(packetBytes)"
