version 2
run DSRUU-TRG-100n-6-20150806-04:17:33-12531
attr configname DSRUU-TRG-100n
attr datetime 20150806-04:17:33
attr experiment DSRUU-TRG-100n
attr inifile omnetpp.ini
attr iterationvars ""
attr iterationvars2 $repetition=6
attr measurement ""
attr network Prj_Part1_propag.scenarioPRJP1
attr processid 12531
attr repetition 6
attr replication #6
attr resultdir results
attr runnumber 6
attr seedset 6

scalar scenarioPRJP1.node[40].app 	"Total sent" 	198
scalar scenarioPRJP1.node[40].app 	"Total received" 	15
scalar scenarioPRJP1.node[40].app 	"Total deleted" 	0
scalar scenarioPRJP1.node[40].app 	dropPk:count 	0
attr interpolationmode  none
attr source  dropPk
attr title  "packets dropped, count"
scalar scenarioPRJP1.node[40].app 	dropPk:sum(packetBytes) 	0
attr interpolationmode  none
attr source  dropPk
attr title  "packets dropped, sum(packetBytes)"
scalar scenarioPRJP1.node[40].app 	outOfOrderPk:count 	0
attr interpolationmode  none
attr source  outOfOrderPk
attr title  "packets received out of order, count"
scalar scenarioPRJP1.node[40].app 	outOfOrderPk:sum(packetBytes) 	0
attr interpolationmode  none
attr source  outOfOrderPk
attr title  "packets received out of order, sum(packetBytes)"
scalar scenarioPRJP1.node[40].app 	rcvdPk:count 	15
attr interpolationmode  none
attr source  rcvdPk
attr title  "packets received, count"
scalar scenarioPRJP1.node[40].app 	rcvdPk:sum(packetBytes) 	7680
attr interpolationmode  none
attr source  rcvdPk
attr title  "packets received, sum(packetBytes)"
statistic scenarioPRJP1.node[40].app 	endToEndDelay:histogram
field count 15
field mean 0.7453919949896
field stddev 1.3370790882586
field sum 11.180879924844
field sqrsum 33.363065228539
field min 0.002154648883
field max 5.185197910231
attr interpolationmode  none
attr source  messageAge(rcvdPk)
attr title  "delay, histogram"
attr unit  s
bin	-INF	0
bin	-2.589366981791	0
bin	-2.2438307643678	0
bin	-1.8982945469446	0
bin	-1.5527583295214	0
bin	-1.2072221120982	0
bin	-0.861685894675	0
bin	-0.5161496772518	0
bin	-0.1706134598286	8
bin	0.1749227575946	1
bin	0.5204589750178	1
bin	0.865995192441	2
bin	1.2115314098642	2
bin	1.5570676272874	0
bin	1.9026038447106	0
bin	2.2481400621338	0
bin	2.593676279557	0
bin	2.9392124969802	0
bin	3.2847487144034	0
bin	3.6302849318266	0
bin	3.9758211492498	0
bin	4.321357366673	0
bin	4.6668935840962	0
bin	5.0124298015194	1
bin	5.3579660189426	0
bin	5.7035022363658	0
bin	6.049038453789	0
bin	6.3945746712122	0
bin	6.7401108886354	0
bin	7.0856471060586	0
bin	7.4311833234818	0
bin	7.776719540905	0
scalar scenarioPRJP1.node[40].app 	sentPk:count 	198
attr interpolationmode  none
attr source  sentPk
attr title  "packets sent, count"
scalar scenarioPRJP1.node[40].app 	sentPk:sum(packetBytes) 	101376
attr interpolationmode  none
attr source  sentPk
attr title  "packets sent, sum(packetBytes)"
scalar scenarioPRJP1.node[40].udp 	droppedPkBadChecksum:count 	0
attr interpolationmode  none
attr title  "packets dropped (checksum error), count"
scalar scenarioPRJP1.node[40].udp 	droppedPkWrongPort:count 	0
attr interpolationmode  none
attr title  "packets dropped (wrong port), count"
scalar scenarioPRJP1.node[40].udp 	passedUpPk:count 	15
attr interpolationmode  none
attr title  "packets passed up, count"
scalar scenarioPRJP1.node[40].udp 	rcvdPk:count 	15
attr interpolationmode  none
attr source  rcvdPk
attr title  "packets received, count"
scalar scenarioPRJP1.node[40].udp 	rcvdPk:sum(packetBytes) 	7800
attr interpolationmode  none
attr source  rcvdPk
attr title  "packets received, sum(packetBytes)"
scalar scenarioPRJP1.node[40].udp 	sentPk:count 	198
attr interpolationmode  none
attr source  sentPk
attr title  "packets sent, count"
scalar scenarioPRJP1.node[40].udp 	sentPk:sum(packetBytes) 	102960
attr interpolationmode  none
attr source  sentPk
attr title  "packets sent, sum(packetBytes)"
scalar scenarioPRJP1.node[40].networkLayer.arp 	failedARPResolution:count 	0
attr title  "ARP failed resolutions, count"
scalar scenarioPRJP1.node[40].networkLayer.arp 	completedARPResolution:count 	102
attr title  "ARP completed resolutions, count"
scalar scenarioPRJP1.node[40].networkLayer.arp 	initiatedARPResolution:count 	17
attr title  "ARP initiated resolutions, count"
scalar scenarioPRJP1.node[40].networkLayer.arp 	sentReply:count 	6
attr title  "ARP replies sent, count"
scalar scenarioPRJP1.node[40].networkLayer.arp 	sentReq:count 	24
attr title  "ARP request sent, count"
scalar scenarioPRJP1.node[40].mobility 	startTime 	4.8
scalar scenarioPRJP1.node[40].mobility 	totalTime 	95.8
scalar scenarioPRJP1.node[40].mobility 	stopTime 	100.7
scalar scenarioPRJP1.node[40].mobility 	minSpeed 	0.2762216476053
scalar scenarioPRJP1.node[40].mobility 	maxSpeed 	20.747625518192
scalar scenarioPRJP1.node[40].mobility 	totalDistance 	1482.7068989645
scalar scenarioPRJP1.node[40].mobility 	totalCO2Emission 	421.67703520331
scalar scenarioPRJP1.node[40].wlan.mgmt 	dataQueueLen:max 	33
attr interpolationmode  sample-hold
attr title  "data queue length, max"
scalar scenarioPRJP1.node[40].wlan.mgmt 	dataQueueLen:timeavg 	0.2193689942376
attr interpolationmode  sample-hold
attr title  "data queue length, timeavg"
scalar scenarioPRJP1.node[40].wlan.mgmt 	dropPkByQueue:count 	0
attr interpolationmode  none
attr source  dropPkByQueue
attr title  "packets dropped by queue, count"
scalar scenarioPRJP1.node[40].wlan.mgmt 	dropPkByQueue:sum(packetBytes) 	0
attr interpolationmode  none
attr source  dropPkByQueue
attr title  "packets dropped by queue, sum(packetBytes)"
scalar scenarioPRJP1.node[40].wlan.mac 	"number of received packets" 	1488
scalar scenarioPRJP1.node[40].wlan.mac 	"number of collisions" 	13798
scalar scenarioPRJP1.node[40].wlan.mac 	"number of internal collisions" 	0
scalar scenarioPRJP1.node[40].wlan.mac 	"number of retry for AC 0" 	3513
scalar scenarioPRJP1.node[40].wlan.mac 	"number of retry for AC 1" 	0
scalar scenarioPRJP1.node[40].wlan.mac 	"number of retry for AC 2" 	0
scalar scenarioPRJP1.node[40].wlan.mac 	"number of retry for AC 3" 	0
scalar scenarioPRJP1.node[40].wlan.mac 	"sent and received bits" 	3590912
scalar scenarioPRJP1.node[40].wlan.mac 	"sent packet within AC 0" 	822
scalar scenarioPRJP1.node[40].wlan.mac 	"sent packet within AC 1" 	0
scalar scenarioPRJP1.node[40].wlan.mac 	"sent packet within AC 2" 	0
scalar scenarioPRJP1.node[40].wlan.mac 	"sent packet within AC 3" 	0
scalar scenarioPRJP1.node[40].wlan.mac 	"sent in TXOP " 	0
scalar scenarioPRJP1.node[40].wlan.mac 	"sentWithoutRetry AC 0" 	697
scalar scenarioPRJP1.node[40].wlan.mac 	"sentWithoutRetry AC 1" 	0
scalar scenarioPRJP1.node[40].wlan.mac 	"sentWithoutRetry AC 2" 	0
scalar scenarioPRJP1.node[40].wlan.mac 	"sentWithoutRetry AC 3" 	0
scalar scenarioPRJP1.node[40].wlan.mac 	"numGivenUp AC 0" 	549
scalar scenarioPRJP1.node[40].wlan.mac 	"numGivenUp AC 1" 	0
scalar scenarioPRJP1.node[40].wlan.mac 	"numGivenUp AC 2" 	0
scalar scenarioPRJP1.node[40].wlan.mac 	"numGivenUp AC 3" 	0
scalar scenarioPRJP1.node[40].wlan.mac 	"numDropped AC 0" 	137
scalar scenarioPRJP1.node[40].wlan.mac 	"numDropped AC 1" 	0
scalar scenarioPRJP1.node[40].wlan.mac 	"numDropped AC 2" 	0
scalar scenarioPRJP1.node[40].wlan.mac 	"numDropped AC 3" 	0
scalar scenarioPRJP1.node[40].wlan.mac 	rcvdPkFromLL:count 	62987
attr interpolationmode  none
attr source  packetReceivedFromLower
attr title  "packets received from lower layer, count"
scalar scenarioPRJP1.node[40].wlan.mac 	rcvdPkFromLL:sum(packetBytes) 	11558852
attr interpolationmode  none
attr source  packetReceivedFromLower
attr title  "packets received from lower layer, sum(packetBytes)"
scalar scenarioPRJP1.node[40].wlan.mac 	sentDownPk:count 	9603
attr interpolationmode  none
attr source  packetSentToLower
attr title  "packets sent to lower layer, count"
scalar scenarioPRJP1.node[40].wlan.mac 	sentDownPk:sum(packetBytes) 	1873036
attr interpolationmode  none
attr source  packetSentToLower
attr title  "packets sent to lower layer, sum(packetBytes)"
scalar scenarioPRJP1.node[40].wlan.mac 	rcvdPkFromHL:count 	4739
attr interpolationmode  none
attr source  packetReceivedFromUpper
attr title  "packets received from higher layer, count"
scalar scenarioPRJP1.node[40].wlan.mac 	rcvdPkFromHL:sum(packetBytes) 	663140
attr interpolationmode  none
attr source  packetReceivedFromUpper
attr title  "packets received from higher layer, sum(packetBytes)"
scalar scenarioPRJP1.node[40].wlan.mac 	passedUpPk:count 	18314
attr interpolationmode  none
attr source  packetSentToUpper
attr title  "packets passed to higher layer, count"
scalar scenarioPRJP1.node[40].wlan.mac 	passedUpPk:sum(packetBytes) 	1552852
attr interpolationmode  none
attr source  packetSentToUpper
attr title  "packets passed to higher layer, sum(packetBytes)"
statistic scenarioPRJP1.node[40].wlan.radio 	radioChannel:histogram
field count 1
field mean 3
field stddev -nan
field sum 3
field sqrsum 9
field min 3
field max 3
attr interpolationmode  sample-hold
attr source  radioChannelChanged
attr title  "Radio channel, histogram"
bin	-INF	0
bin	2	0
bin	3	1
bin	4	0
scalar scenarioPRJP1.node[40].wlan.radio 	transmissionState:count 	38412
attr interpolationmode  sample-hold
attr source  transmissionStateChanged
attr title  "Radio transmission state, count"
scalar scenarioPRJP1.node[40].wlan.radio 	receptionState:count 	148587
attr interpolationmode  sample-hold
attr source  receptionStateChanged
attr title  "Radio reception state, count"
scalar scenarioPRJP1.node[40].wlan.radio 	radioMode:count 	19208
attr interpolationmode  sample-hold
attr source  radioModeChanged
attr title  "Radio mode, count"
statistic scenarioPRJP1.node[40].wlan.radio 	symbolErrorRate:histogram
field count 0
field mean -nan
field stddev -nan
field sum 0
field sqrsum 0
field min -nan
field max -nan
attr source  symbolErrorRate
attr title  "Symbol error rate, histogram"
bin	-INF	0
bin	-0.5	0
bin	-0.46666666666667	0
bin	-0.43333333333333	0
bin	-0.4	0
bin	-0.36666666666667	0
bin	-0.33333333333333	0
bin	-0.3	0
bin	-0.26666666666667	0
bin	-0.23333333333333	0
bin	-0.2	0
bin	-0.16666666666667	0
bin	-0.13333333333333	0
bin	-0.1	0
bin	-0.066666666666667	0
bin	-0.033333333333333	0
bin	0	0
bin	0.033333333333333	0
bin	0.066666666666667	0
bin	0.1	0
bin	0.13333333333333	0
bin	0.16666666666667	0
bin	0.2	0
bin	0.23333333333333	0
bin	0.26666666666667	0
bin	0.3	0
bin	0.33333333333333	0
bin	0.36666666666667	0
bin	0.4	0
bin	0.43333333333333	0
bin	0.46666666666667	0
bin	0.5	0
statistic scenarioPRJP1.node[40].wlan.radio 	bitErrorRate:histogram
field count 0
field mean -nan
field stddev -nan
field sum 0
field sqrsum 0
field min -nan
field max -nan
attr source  bitErrorRate
attr title  "Bit error rate, histogram"
bin	-INF	0
bin	-0.5	0
bin	-0.46666666666667	0
bin	-0.43333333333333	0
bin	-0.4	0
bin	-0.36666666666667	0
bin	-0.33333333333333	0
bin	-0.3	0
bin	-0.26666666666667	0
bin	-0.23333333333333	0
bin	-0.2	0
bin	-0.16666666666667	0
bin	-0.13333333333333	0
bin	-0.1	0
bin	-0.066666666666667	0
bin	-0.033333333333333	0
bin	0	0
bin	0.033333333333333	0
bin	0.066666666666667	0
bin	0.1	0
bin	0.13333333333333	0
bin	0.16666666666667	0
bin	0.2	0
bin	0.23333333333333	0
bin	0.26666666666667	0
bin	0.3	0
bin	0.33333333333333	0
bin	0.36666666666667	0
bin	0.4	0
bin	0.43333333333333	0
bin	0.46666666666667	0
bin	0.5	0
statistic scenarioPRJP1.node[40].wlan.radio 	packetErrorRate:histogram
field count 62987
field mean 0.19679037076323
field stddev 0.38761783403394
field sum 12395.235083264
field sqrsum 11902.757312993
field min 0
field max 1
attr source  packetErrorRate
attr title  "Packet error rate, histogram"
bin	-INF	0
bin	-4.1195713507136e-09	0
bin	-3.5702951706185e-09	0
bin	-3.0210189905233e-09	0
bin	-2.4717428104282e-09	0
bin	-1.922466630333e-09	0
bin	-1.3731904502379e-09	0
bin	-8.2391427014272e-10	0
bin	-2.7463809004757e-10	37666
bin	2.7463809004757e-10	458
bin	8.2391427014272e-10	237
bin	1.3731904502379e-09	142
bin	1.922466630333e-09	100
bin	2.4717428104282e-09	101
bin	3.0210189905233e-09	65
bin	3.5702951706185e-09	65
bin	4.1195713507136e-09	60
bin	4.6688475308088e-09	45
bin	5.2181237109039e-09	44
bin	5.7673998909991e-09	48
bin	6.3166760710942e-09	49
bin	6.8659522511894e-09	34
bin	7.4152284312845e-09	42
bin	7.9645046113797e-09	33
bin	8.5137807914748e-09	31
bin	9.0630569715699e-09	29
bin	9.6123331516651e-09	25
bin	1.016160933176e-08	24
bin	1.0710885511855e-08	25
bin	1.1260161691951e-08	26
bin	1.1809437872046e-08	20
bin	1.2358714052141e-08	23618
statistic scenarioPRJP1.node[40].wlan.radio 	minSNIR:histogram
field count 62987
field mean 192.13474155785
field stddev 1634.9422427784
field sum 12101990.966504
field sqrsum 170689067045.69
field min 0.0002605532288653
field max 179504.6677808
attr source  minSNIR
attr title  "Min SNIR, histogram"
bin	-INF	0
bin	-6003.1086010341	0
bin	-5202.0498462645	0
bin	-4400.9910914949	0
bin	-3599.9323367252	0
bin	-2798.8735819556	0
bin	-1997.814827186	0
bin	-1196.7560724163	0
bin	-395.69731764672	58295
bin	405.36143712292	2978
bin	1206.4201918925	743
bin	2007.4789466622	306
bin	2808.5377014318	168
bin	3609.5964562014	104
bin	4410.6552109711	87
bin	5211.7139657407	54
bin	6012.7727205103	46
bin	6813.83147528	26
bin	7614.8902300496	19
bin	8415.9489848192	24
bin	9217.0077395889	14
bin	10018.066494359	11
bin	10819.125249128	16
bin	11620.184003898	11
bin	12421.242758667	5
bin	13222.301513437	5
bin	14023.360268207	5
bin	14824.419022976	4
bin	15625.477777746	3
bin	16426.536532516	5
bin	17227.595287285	1
bin	18028.654042055	57
scalar scenarioPRJP1.node[40].lo0.lo 	droppedPkBitError:count 	0
attr interpolationmode  none
attr source  dropPkBitError
attr title  "packets dropped/bit error, count"
scalar scenarioPRJP1.node[40].lo0.lo 	droppedPkBitError:sum(packetBytes) 	0
attr interpolationmode  none
attr source  dropPkBitError
attr title  "packets dropped/bit error, sum(packetBytes)"
scalar scenarioPRJP1.node[40].lo0.lo 	rcvdPkFromHL:count 	15
attr interpolationmode  none
attr source  packetReceivedFromUpper
attr title  "packets received from higher layer, count"
scalar scenarioPRJP1.node[40].lo0.lo 	rcvdPkFromHL:sum(packetBytes) 	7800
attr interpolationmode  none
attr source  packetReceivedFromUpper
attr title  "packets received from higher layer, sum(packetBytes)"
scalar scenarioPRJP1.node[40].lo0.lo 	passedUpPk:count 	15
attr interpolationmode  none
attr source  packetSentToUpper
attr title  "packets passed to higher layer, count"
scalar scenarioPRJP1.node[40].lo0.lo 	passedUpPk:sum(packetBytes) 	7800
attr interpolationmode  none
attr source  packetSentToUpper
attr title  "packets passed to higher layer, sum(packetBytes)"
scalar scenarioPRJP1.node[76].app 	"Total sent" 	365
scalar scenarioPRJP1.node[76].app 	"Total received" 	25
scalar scenarioPRJP1.node[76].app 	"Total deleted" 	0
scalar scenarioPRJP1.node[76].app 	dropPk:count 	0
attr interpolationmode  none
attr source  dropPk
attr title  "packets dropped, count"
scalar scenarioPRJP1.node[76].app 	dropPk:sum(packetBytes) 	0
attr interpolationmode  none
attr source  dropPk
attr title  "packets dropped, sum(packetBytes)"
scalar scenarioPRJP1.node[76].app 	outOfOrderPk:count 	7
attr interpolationmode  none
attr source  outOfOrderPk
attr title  "packets received out of order, count"
scalar scenarioPRJP1.node[76].app 	outOfOrderPk:sum(packetBytes) 	3584
attr interpolationmode  none
attr source  outOfOrderPk
attr title  "packets received out of order, sum(packetBytes)"
scalar scenarioPRJP1.node[76].app 	rcvdPk:count 	25
attr interpolationmode  none
attr source  rcvdPk
attr title  "packets received, count"
scalar scenarioPRJP1.node[76].app 	rcvdPk:sum(packetBytes) 	12800
attr interpolationmode  none
attr source  rcvdPk
attr title  "packets received, sum(packetBytes)"
statistic scenarioPRJP1.node[76].app 	endToEndDelay:histogram
field count 25
field mean 2.0174314171656
field stddev 3.8278311059259
field sum 50.435785429141
field sqrsum 453.40572148602
field min 0.00095603201
field max 16.923820916893
attr interpolationmode  none
attr source  messageAge(rcvdPk)
attr title  "delay, histogram"
attr unit  s
bin	-INF	0
bin	-8.4604764104315	0
bin	-7.332285418106	0
bin	-6.2040944257804	0
bin	-5.0759034334549	0
bin	-3.9477124411294	0
bin	-2.8195214488038	0
bin	-1.6913304564783	0
bin	-0.56313946415277	15
bin	0.56505152817276	3
bin	1.6932425204983	2
bin	2.8214335128238	0
bin	3.9496245051494	1
bin	5.0778154974749	1
bin	6.2060064898004	1
bin	7.334197482126	1
bin	8.4623884744515	0
bin	9.590579466777	0
bin	10.718770459103	0
bin	11.846961451428	0
bin	12.975152443754	0
bin	14.103343436079	0
bin	15.231534428405	0
bin	16.35972542073	1
bin	17.487916413056	0
bin	18.616107405381	0
bin	19.744298397707	0
bin	20.872489390032	0
bin	22.000680382358	0
bin	23.128871374683	0
bin	24.257062367009	0
bin	25.385253359334	0
scalar scenarioPRJP1.node[76].app 	sentPk:count 	365
attr interpolationmode  none
attr source  sentPk
attr title  "packets sent, count"
scalar scenarioPRJP1.node[76].app 	sentPk:sum(packetBytes) 	186880
attr interpolationmode  none
attr source  sentPk
attr title  "packets sent, sum(packetBytes)"
scalar scenarioPRJP1.node[76].udp 	droppedPkBadChecksum:count 	0
attr interpolationmode  none
attr title  "packets dropped (checksum error), count"
scalar scenarioPRJP1.node[76].udp 	droppedPkWrongPort:count 	0
attr interpolationmode  none
attr title  "packets dropped (wrong port), count"
scalar scenarioPRJP1.node[76].udp 	passedUpPk:count 	32
attr interpolationmode  none
attr title  "packets passed up, count"
scalar scenarioPRJP1.node[76].udp 	rcvdPk:count 	32
attr interpolationmode  none
attr source  rcvdPk
attr title  "packets received, count"
scalar scenarioPRJP1.node[76].udp 	rcvdPk:sum(packetBytes) 	16640
attr interpolationmode  none
attr source  rcvdPk
attr title  "packets received, sum(packetBytes)"
scalar scenarioPRJP1.node[76].udp 	sentPk:count 	365
attr interpolationmode  none
attr source  sentPk
attr title  "packets sent, count"
scalar scenarioPRJP1.node[76].udp 	sentPk:sum(packetBytes) 	189800
attr interpolationmode  none
attr source  sentPk
attr title  "packets sent, sum(packetBytes)"
scalar scenarioPRJP1.node[76].networkLayer.arp 	failedARPResolution:count 	4
attr title  "ARP failed resolutions, count"
scalar scenarioPRJP1.node[76].networkLayer.arp 	completedARPResolution:count 	168
attr title  "ARP completed resolutions, count"
scalar scenarioPRJP1.node[76].networkLayer.arp 	initiatedARPResolution:count 	26
attr title  "ARP initiated resolutions, count"
scalar scenarioPRJP1.node[76].networkLayer.arp 	sentReply:count 	12
attr title  "ARP replies sent, count"
scalar scenarioPRJP1.node[76].networkLayer.arp 	sentReq:count 	42
attr title  "ARP request sent, count"
scalar scenarioPRJP1.node[76].mobility 	startTime 	7.4
scalar scenarioPRJP1.node[76].mobility 	totalTime 	151.3
scalar scenarioPRJP1.node[76].mobility 	stopTime 	158.8
scalar scenarioPRJP1.node[76].mobility 	minSpeed 	2.4768166814114e-13
scalar scenarioPRJP1.node[76].mobility 	maxSpeed 	19.509279896428
scalar scenarioPRJP1.node[76].mobility 	totalDistance 	1484.6094086833
scalar scenarioPRJP1.node[76].mobility 	totalCO2Emission 	484.18100539996
scalar scenarioPRJP1.node[76].wlan.mgmt 	dataQueueLen:max 	36
attr interpolationmode  sample-hold
attr title  "data queue length, max"
scalar scenarioPRJP1.node[76].wlan.mgmt 	dataQueueLen:timeavg 	0.056964538913415
attr interpolationmode  sample-hold
attr title  "data queue length, timeavg"
scalar scenarioPRJP1.node[76].wlan.mgmt 	dropPkByQueue:count 	0
attr interpolationmode  none
attr source  dropPkByQueue
attr title  "packets dropped by queue, count"
scalar scenarioPRJP1.node[76].wlan.mgmt 	dropPkByQueue:sum(packetBytes) 	0
attr interpolationmode  none
attr source  dropPkByQueue
attr title  "packets dropped by queue, sum(packetBytes)"
scalar scenarioPRJP1.node[76].wlan.mac 	"number of received packets" 	2261
scalar scenarioPRJP1.node[76].wlan.mac 	"number of collisions" 	18500
scalar scenarioPRJP1.node[76].wlan.mac 	"number of internal collisions" 	0
scalar scenarioPRJP1.node[76].wlan.mac 	"number of retry for AC 0" 	5154
scalar scenarioPRJP1.node[76].wlan.mac 	"number of retry for AC 1" 	0
scalar scenarioPRJP1.node[76].wlan.mac 	"number of retry for AC 2" 	0
scalar scenarioPRJP1.node[76].wlan.mac 	"number of retry for AC 3" 	0
scalar scenarioPRJP1.node[76].wlan.mac 	"sent and received bits" 	5453376
scalar scenarioPRJP1.node[76].wlan.mac 	"sent packet within AC 0" 	1209
scalar scenarioPRJP1.node[76].wlan.mac 	"sent packet within AC 1" 	0
scalar scenarioPRJP1.node[76].wlan.mac 	"sent packet within AC 2" 	0
scalar scenarioPRJP1.node[76].wlan.mac 	"sent packet within AC 3" 	0
scalar scenarioPRJP1.node[76].wlan.mac 	"sent in TXOP " 	0
scalar scenarioPRJP1.node[76].wlan.mac 	"sentWithoutRetry AC 0" 	1030
scalar scenarioPRJP1.node[76].wlan.mac 	"sentWithoutRetry AC 1" 	0
scalar scenarioPRJP1.node[76].wlan.mac 	"sentWithoutRetry AC 2" 	0
scalar scenarioPRJP1.node[76].wlan.mac 	"sentWithoutRetry AC 3" 	0
scalar scenarioPRJP1.node[76].wlan.mac 	"numGivenUp AC 0" 	800
scalar scenarioPRJP1.node[76].wlan.mac 	"numGivenUp AC 1" 	0
scalar scenarioPRJP1.node[76].wlan.mac 	"numGivenUp AC 2" 	0
scalar scenarioPRJP1.node[76].wlan.mac 	"numGivenUp AC 3" 	0
scalar scenarioPRJP1.node[76].wlan.mac 	"numDropped AC 0" 	69
scalar scenarioPRJP1.node[76].wlan.mac 	"numDropped AC 1" 	0
scalar scenarioPRJP1.node[76].wlan.mac 	"numDropped AC 2" 	0
scalar scenarioPRJP1.node[76].wlan.mac 	"numDropped AC 3" 	0
scalar scenarioPRJP1.node[76].wlan.mac 	rcvdPkFromLL:count 	87655
attr interpolationmode  none
attr source  packetReceivedFromLower
attr title  "packets received from lower layer, count"
scalar scenarioPRJP1.node[76].wlan.mac 	rcvdPkFromLL:sum(packetBytes) 	16843076
attr interpolationmode  none
attr source  packetReceivedFromLower
attr title  "packets received from lower layer, sum(packetBytes)"
scalar scenarioPRJP1.node[76].wlan.mac 	sentDownPk:count 	14383
attr interpolationmode  none
attr source  packetSentToLower
attr title  "packets sent to lower layer, count"
scalar scenarioPRJP1.node[76].wlan.mac 	sentDownPk:sum(packetBytes) 	2631354
attr interpolationmode  none
attr source  packetSentToLower
attr title  "packets sent to lower layer, sum(packetBytes)"
scalar scenarioPRJP1.node[76].wlan.mac 	rcvdPkFromHL:count 	7037
attr interpolationmode  none
attr source  packetReceivedFromUpper
attr title  "packets received from higher layer, count"
scalar scenarioPRJP1.node[76].wlan.mac 	rcvdPkFromHL:sum(packetBytes) 	950192
attr interpolationmode  none
attr source  packetReceivedFromUpper
attr title  "packets received from higher layer, sum(packetBytes)"
scalar scenarioPRJP1.node[76].wlan.mac 	passedUpPk:count 	23193
attr interpolationmode  none
attr source  packetSentToUpper
attr title  "packets passed to higher layer, count"
scalar scenarioPRJP1.node[76].wlan.mac 	passedUpPk:sum(packetBytes) 	1961948
attr interpolationmode  none
attr source  packetSentToUpper
attr title  "packets passed to higher layer, sum(packetBytes)"
statistic scenarioPRJP1.node[76].wlan.radio 	radioChannel:histogram
field count 1
field mean 3
field stddev -nan
field sum 3
field sqrsum 9
field min 3
field max 3
attr interpolationmode  sample-hold
attr source  radioChannelChanged
attr title  "Radio channel, histogram"
bin	-INF	0
bin	2	0
bin	3	1
bin	4	0
scalar scenarioPRJP1.node[76].wlan.radio 	transmissionState:count 	57532
attr interpolationmode  sample-hold
attr source  transmissionStateChanged
attr title  "Radio transmission state, count"
scalar scenarioPRJP1.node[76].wlan.radio 	receptionState:count 	207136
attr interpolationmode  sample-hold
attr source  receptionStateChanged
attr title  "Radio reception state, count"
scalar scenarioPRJP1.node[76].wlan.radio 	radioMode:count 	28768
attr interpolationmode  sample-hold
attr source  radioModeChanged
attr title  "Radio mode, count"
statistic scenarioPRJP1.node[76].wlan.radio 	symbolErrorRate:histogram
field count 0
field mean -nan
field stddev -nan
field sum 0
field sqrsum 0
field min -nan
field max -nan
attr source  symbolErrorRate
attr title  "Symbol error rate, histogram"
bin	-INF	0
bin	-0.5	0
bin	-0.46666666666667	0
bin	-0.43333333333333	0
bin	-0.4	0
bin	-0.36666666666667	0
bin	-0.33333333333333	0
bin	-0.3	0
bin	-0.26666666666667	0
bin	-0.23333333333333	0
bin	-0.2	0
bin	-0.16666666666667	0
bin	-0.13333333333333	0
bin	-0.1	0
bin	-0.066666666666667	0
bin	-0.033333333333333	0
bin	0	0
bin	0.033333333333333	0
bin	0.066666666666667	0
bin	0.1	0
bin	0.13333333333333	0
bin	0.16666666666667	0
bin	0.2	0
bin	0.23333333333333	0
bin	0.26666666666667	0
bin	0.3	0
bin	0.33333333333333	0
bin	0.36666666666667	0
bin	0.4	0
bin	0.43333333333333	0
bin	0.46666666666667	0
bin	0.5	0
statistic scenarioPRJP1.node[76].wlan.radio 	bitErrorRate:histogram
field count 0
field mean -nan
field stddev -nan
field sum 0
field sqrsum 0
field min -nan
field max -nan
attr source  bitErrorRate
attr title  "Bit error rate, histogram"
bin	-INF	0
bin	-0.5	0
bin	-0.46666666666667	0
bin	-0.43333333333333	0
bin	-0.4	0
bin	-0.36666666666667	0
bin	-0.33333333333333	0
bin	-0.3	0
bin	-0.26666666666667	0
bin	-0.23333333333333	0
bin	-0.2	0
bin	-0.16666666666667	0
bin	-0.13333333333333	0
bin	-0.1	0
bin	-0.066666666666667	0
bin	-0.033333333333333	0
bin	0	0
bin	0.033333333333333	0
bin	0.066666666666667	0
bin	0.1	0
bin	0.13333333333333	0
bin	0.16666666666667	0
bin	0.2	0
bin	0.23333333333333	0
bin	0.26666666666667	0
bin	0.3	0
bin	0.33333333333333	0
bin	0.36666666666667	0
bin	0.4	0
bin	0.43333333333333	0
bin	0.46666666666667	0
bin	0.5	0
statistic scenarioPRJP1.node[76].wlan.radio 	packetErrorRate:histogram
field count 87655
field mean 0.18758829700437
field stddev 0.37993109363557
field sum 16443.052173918
field sqrsum 15737.171833013
field min 0
field max 1
attr source  packetErrorRate
attr title  "Packet error rate, histogram"
bin	-INF	0
bin	-8.4354349727533e-08	0
bin	-7.3107103097196e-08	0
bin	-6.1859856466858e-08	0
bin	-5.061260983652e-08	0
bin	-3.9365363206182e-08	0
bin	-2.8118116575844e-08	0
bin	-1.6870869945507e-08	0
bin	-5.6236233151689e-09	54473
bin	5.6236233151689e-09	730
bin	1.6870869945507e-08	356
bin	2.8118116575844e-08	237
bin	3.9365363206182e-08	170
bin	5.061260983652e-08	145
bin	6.1859856466858e-08	101
bin	7.3107103097196e-08	109
bin	8.4354349727533e-08	85
bin	9.5601596357871e-08	62
bin	1.0684884298821e-07	71
bin	1.1809608961855e-07	65
bin	1.2934333624888e-07	65
bin	1.4059058287922e-07	62
bin	1.5183782950956e-07	53
bin	1.630850761399e-07	51
bin	1.7433232277024e-07	36
bin	1.8557956940057e-07	41
bin	1.9682681603091e-07	47
bin	2.0807406266125e-07	33
bin	2.1932130929159e-07	35
bin	2.3056855592192e-07	29
bin	2.4181580255226e-07	33
bin	2.530630491826e-07	30566
statistic scenarioPRJP1.node[76].wlan.radio 	minSNIR:histogram
field count 87655
field mean 935.21786056541
field stddev 12531.471244707
field sum 81976521.567861
field sqrsum 13841654735168
field min 0.00016971008384207
field max 753239.71755189
attr source  minSNIR
attr title  "Min SNIR, histogram"
bin	-INF	0
bin	-6364.2466339167	0
bin	-5515.1094114562	0
bin	-4665.9721889956	0
bin	-3816.834966535	0
bin	-2967.6977440744	0
bin	-2118.5605216138	0
bin	-1269.4232991532	0
bin	-420.28607669264	77660
bin	428.85114576795	4190
bin	1277.9883682285	1502
bin	2127.1255906891	871
bin	2976.2628131497	547
bin	3825.4000356103	385
bin	4674.5372580709	284
bin	5523.6744805315	213
bin	6372.811702992	162
bin	7221.9489254526	156
bin	8071.0861479132	154
bin	8920.2233703738	125
bin	9769.3605928344	97
bin	10618.497815295	68
bin	11467.635037756	78
bin	12316.772260216	87
bin	13165.909482677	62
bin	14015.046705137	69
bin	14864.183927598	84
bin	15713.321150058	69
bin	16562.458372519	61
bin	17411.59559498	53
bin	18260.73281744	56
bin	19109.870039901	622
scalar scenarioPRJP1.node[76].lo0.lo 	droppedPkBitError:count 	0
attr interpolationmode  none
attr source  dropPkBitError
attr title  "packets dropped/bit error, count"
scalar scenarioPRJP1.node[76].lo0.lo 	droppedPkBitError:sum(packetBytes) 	0
attr interpolationmode  none
attr source  dropPkBitError
attr title  "packets dropped/bit error, sum(packetBytes)"
scalar scenarioPRJP1.node[76].lo0.lo 	rcvdPkFromHL:count 	32
attr interpolationmode  none
attr source  packetReceivedFromUpper
attr title  "packets received from higher layer, count"
scalar scenarioPRJP1.node[76].lo0.lo 	rcvdPkFromHL:sum(packetBytes) 	16640
attr interpolationmode  none
attr source  packetReceivedFromUpper
attr title  "packets received from higher layer, sum(packetBytes)"
scalar scenarioPRJP1.node[76].lo0.lo 	passedUpPk:count 	32
attr interpolationmode  none
attr source  packetSentToUpper
attr title  "packets passed to higher layer, count"
scalar scenarioPRJP1.node[76].lo0.lo 	passedUpPk:sum(packetBytes) 	16640
attr interpolationmode  none
attr source  packetSentToUpper
attr title  "packets passed to higher layer, sum(packetBytes)"
scalar scenarioPRJP1.node[91].app 	"Total sent" 	373
scalar scenarioPRJP1.node[91].app 	"Total received" 	15
scalar scenarioPRJP1.node[91].app 	"Total deleted" 	2
scalar scenarioPRJP1.node[91].app 	dropPk:count 	2
attr interpolationmode  none
attr source  dropPk
attr title  "packets dropped, count"
scalar scenarioPRJP1.node[91].app 	dropPk:sum(packetBytes) 	1024
attr interpolationmode  none
attr source  dropPk
attr title  "packets dropped, sum(packetBytes)"
scalar scenarioPRJP1.node[91].app 	outOfOrderPk:count 	3
attr interpolationmode  none
attr source  outOfOrderPk
attr title  "packets received out of order, count"
scalar scenarioPRJP1.node[91].app 	outOfOrderPk:sum(packetBytes) 	1536
attr interpolationmode  none
attr source  outOfOrderPk
attr title  "packets received out of order, sum(packetBytes)"
scalar scenarioPRJP1.node[91].app 	rcvdPk:count 	15
attr interpolationmode  none
attr source  rcvdPk
attr title  "packets received, count"
scalar scenarioPRJP1.node[91].app 	rcvdPk:sum(packetBytes) 	7680
attr interpolationmode  none
attr source  rcvdPk
attr title  "packets received, sum(packetBytes)"
statistic scenarioPRJP1.node[91].app 	endToEndDelay:histogram
field count 15
field mean 2.5480742586017
field stddev 4.837352251137
field sum 38.221113879026
field sqrsum 424.98991163235
field min 0.001171065085
field max 15.146751674998
attr interpolationmode  none
attr source  messageAge(rcvdPk)
attr title  "delay, histogram"
attr unit  s
bin	-INF	0
bin	-7.5716192398715	0
bin	-6.5619138658773	0
bin	-5.5522084918831	0
bin	-4.5425031178889	0
bin	-3.5327977438947	0
bin	-2.5230923699005	0
bin	-1.5133869959063	0
bin	-0.5036816219121	9
bin	0.5060237520821	3
bin	1.5157291260763	0
bin	2.5254345000705	0
bin	3.5351398740647	0
bin	4.5448452480589	0
bin	5.5545506220531	0
bin	6.5642559960473	0
bin	7.5739613700415	1
bin	8.5836667440357	0
bin	9.5933721180299	0
bin	10.603077492024	1
bin	11.612782866018	0
bin	12.622488240012	0
bin	13.632193614007	0
bin	14.641898988001	1
bin	15.651604361995	0
bin	16.661309735989	0
bin	17.671015109984	0
bin	18.680720483978	0
bin	19.690425857972	0
bin	20.700131231966	0
bin	21.70983660596	0
bin	22.719541979954	0
scalar scenarioPRJP1.node[91].app 	sentPk:count 	373
attr interpolationmode  none
attr source  sentPk
attr title  "packets sent, count"
scalar scenarioPRJP1.node[91].app 	sentPk:sum(packetBytes) 	190976
attr interpolationmode  none
attr source  sentPk
attr title  "packets sent, sum(packetBytes)"
scalar scenarioPRJP1.node[91].udp 	droppedPkBadChecksum:count 	0
attr interpolationmode  none
attr title  "packets dropped (checksum error), count"
scalar scenarioPRJP1.node[91].udp 	droppedPkWrongPort:count 	0
attr interpolationmode  none
attr title  "packets dropped (wrong port), count"
scalar scenarioPRJP1.node[91].udp 	passedUpPk:count 	20
attr interpolationmode  none
attr title  "packets passed up, count"
scalar scenarioPRJP1.node[91].udp 	rcvdPk:count 	20
attr interpolationmode  none
attr source  rcvdPk
attr title  "packets received, count"
scalar scenarioPRJP1.node[91].udp 	rcvdPk:sum(packetBytes) 	10400
attr interpolationmode  none
attr source  rcvdPk
attr title  "packets received, sum(packetBytes)"
scalar scenarioPRJP1.node[91].udp 	sentPk:count 	373
attr interpolationmode  none
attr source  sentPk
attr title  "packets sent, count"
scalar scenarioPRJP1.node[91].udp 	sentPk:sum(packetBytes) 	193960
attr interpolationmode  none
attr source  sentPk
attr title  "packets sent, sum(packetBytes)"
scalar scenarioPRJP1.node[91].networkLayer.arp 	failedARPResolution:count 	2
attr title  "ARP failed resolutions, count"
scalar scenarioPRJP1.node[91].networkLayer.arp 	completedARPResolution:count 	77
attr title  "ARP completed resolutions, count"
scalar scenarioPRJP1.node[91].networkLayer.arp 	initiatedARPResolution:count 	14
attr title  "ARP initiated resolutions, count"
scalar scenarioPRJP1.node[91].networkLayer.arp 	sentReply:count 	13
attr title  "ARP replies sent, count"
scalar scenarioPRJP1.node[91].networkLayer.arp 	sentReq:count 	21
attr title  "ARP request sent, count"
scalar scenarioPRJP1.node[91].mobility 	startTime 	9.7
scalar scenarioPRJP1.node[91].mobility 	totalTime 	150
scalar scenarioPRJP1.node[91].mobility 	stopTime 	159.8
scalar scenarioPRJP1.node[91].mobility 	minSpeed 	2.4754793227993e-13
scalar scenarioPRJP1.node[91].mobility 	maxSpeed 	18.510390848969
scalar scenarioPRJP1.node[91].mobility 	totalDistance 	1484.7156323069
scalar scenarioPRJP1.node[91].mobility 	totalCO2Emission 	430.78240155826
scalar scenarioPRJP1.node[91].wlan.mgmt 	dataQueueLen:max 	8
attr interpolationmode  sample-hold
attr title  "data queue length, max"
scalar scenarioPRJP1.node[91].wlan.mgmt 	dataQueueLen:timeavg 	0.0066695795520853
attr interpolationmode  sample-hold
attr title  "data queue length, timeavg"
scalar scenarioPRJP1.node[91].wlan.mgmt 	dropPkByQueue:count 	0
attr interpolationmode  none
attr source  dropPkByQueue
attr title  "packets dropped by queue, count"
scalar scenarioPRJP1.node[91].wlan.mgmt 	dropPkByQueue:sum(packetBytes) 	0
attr interpolationmode  none
attr source  dropPkByQueue
attr title  "packets dropped by queue, sum(packetBytes)"
scalar scenarioPRJP1.node[91].wlan.mac 	"number of received packets" 	2006
scalar scenarioPRJP1.node[91].wlan.mac 	"number of collisions" 	15725
scalar scenarioPRJP1.node[91].wlan.mac 	"number of internal collisions" 	0
scalar scenarioPRJP1.node[91].wlan.mac 	"number of retry for AC 0" 	5582
scalar scenarioPRJP1.node[91].wlan.mac 	"number of retry for AC 1" 	0
scalar scenarioPRJP1.node[91].wlan.mac 	"number of retry for AC 2" 	0
scalar scenarioPRJP1.node[91].wlan.mac 	"number of retry for AC 3" 	0
scalar scenarioPRJP1.node[91].wlan.mac 	"sent and received bits" 	3549184
scalar scenarioPRJP1.node[91].wlan.mac 	"sent packet within AC 0" 	724
scalar scenarioPRJP1.node[91].wlan.mac 	"sent packet within AC 1" 	0
scalar scenarioPRJP1.node[91].wlan.mac 	"sent packet within AC 2" 	0
scalar scenarioPRJP1.node[91].wlan.mac 	"sent packet within AC 3" 	0
scalar scenarioPRJP1.node[91].wlan.mac 	"sent in TXOP " 	0
scalar scenarioPRJP1.node[91].wlan.mac 	"sentWithoutRetry AC 0" 	648
scalar scenarioPRJP1.node[91].wlan.mac 	"sentWithoutRetry AC 1" 	0
scalar scenarioPRJP1.node[91].wlan.mac 	"sentWithoutRetry AC 2" 	0
scalar scenarioPRJP1.node[91].wlan.mac 	"sentWithoutRetry AC 3" 	0
scalar scenarioPRJP1.node[91].wlan.mac 	"numGivenUp AC 0" 	903
scalar scenarioPRJP1.node[91].wlan.mac 	"numGivenUp AC 1" 	0
scalar scenarioPRJP1.node[91].wlan.mac 	"numGivenUp AC 2" 	0
scalar scenarioPRJP1.node[91].wlan.mac 	"numGivenUp AC 3" 	0
scalar scenarioPRJP1.node[91].wlan.mac 	"numDropped AC 0" 	38
scalar scenarioPRJP1.node[91].wlan.mac 	"numDropped AC 1" 	0
scalar scenarioPRJP1.node[91].wlan.mac 	"numDropped AC 2" 	0
scalar scenarioPRJP1.node[91].wlan.mac 	"numDropped AC 3" 	0
scalar scenarioPRJP1.node[91].wlan.mac 	rcvdPkFromLL:count 	55319
attr interpolationmode  none
attr source  packetReceivedFromLower
attr title  "packets received from lower layer, count"
scalar scenarioPRJP1.node[91].wlan.mac 	rcvdPkFromLL:sum(packetBytes) 	10642010
attr interpolationmode  none
attr source  packetReceivedFromLower
attr title  "packets received from lower layer, sum(packetBytes)"
scalar scenarioPRJP1.node[91].wlan.mac 	sentDownPk:count 	12949
attr interpolationmode  none
attr source  packetSentToLower
attr title  "packets sent to lower layer, count"
scalar scenarioPRJP1.node[91].wlan.mac 	sentDownPk:sum(packetBytes) 	2872500
attr interpolationmode  none
attr source  packetSentToLower
attr title  "packets sent to lower layer, sum(packetBytes)"
scalar scenarioPRJP1.node[91].wlan.mac 	rcvdPkFromHL:count 	5399
attr interpolationmode  none
attr source  packetReceivedFromUpper
attr title  "packets received from higher layer, count"
scalar scenarioPRJP1.node[91].wlan.mac 	rcvdPkFromHL:sum(packetBytes) 	788816
attr interpolationmode  none
attr source  packetReceivedFromUpper
attr title  "packets received from higher layer, sum(packetBytes)"
scalar scenarioPRJP1.node[91].wlan.mac 	passedUpPk:count 	13509
attr interpolationmode  none
attr source  packetSentToUpper
attr title  "packets passed to higher layer, count"
scalar scenarioPRJP1.node[91].wlan.mac 	passedUpPk:sum(packetBytes) 	1193372
attr interpolationmode  none
attr source  packetSentToUpper
attr title  "packets passed to higher layer, sum(packetBytes)"
statistic scenarioPRJP1.node[91].wlan.radio 	radioChannel:histogram
field count 1
field mean 3
field stddev -nan
field sum 3
field sqrsum 9
field min 3
field max 3
attr interpolationmode  sample-hold
attr source  radioChannelChanged
attr title  "Radio channel, histogram"
bin	-INF	0
bin	2	0
bin	3	1
bin	4	0
scalar scenarioPRJP1.node[91].wlan.radio 	transmissionState:count 	51796
attr interpolationmode  sample-hold
attr source  transmissionStateChanged
attr title  "Radio transmission state, count"
scalar scenarioPRJP1.node[91].wlan.radio 	receptionState:count 	139015
attr interpolationmode  sample-hold
attr source  receptionStateChanged
attr title  "Radio reception state, count"
scalar scenarioPRJP1.node[91].wlan.radio 	radioMode:count 	25900
attr interpolationmode  sample-hold
attr source  radioModeChanged
attr title  "Radio mode, count"
statistic scenarioPRJP1.node[91].wlan.radio 	symbolErrorRate:histogram
field count 0
field mean -nan
field stddev -nan
field sum 0
field sqrsum 0
field min -nan
field max -nan
attr source  symbolErrorRate
attr title  "Symbol error rate, histogram"
bin	-INF	0
bin	-0.5	0
bin	-0.46666666666667	0
bin	-0.43333333333333	0
bin	-0.4	0
bin	-0.36666666666667	0
bin	-0.33333333333333	0
bin	-0.3	0
bin	-0.26666666666667	0
bin	-0.23333333333333	0
bin	-0.2	0
bin	-0.16666666666667	0
bin	-0.13333333333333	0
bin	-0.1	0
bin	-0.066666666666667	0
bin	-0.033333333333333	0
bin	0	0
bin	0.033333333333333	0
bin	0.066666666666667	0
bin	0.1	0
bin	0.13333333333333	0
bin	0.16666666666667	0
bin	0.2	0
bin	0.23333333333333	0
bin	0.26666666666667	0
bin	0.3	0
bin	0.33333333333333	0
bin	0.36666666666667	0
bin	0.4	0
bin	0.43333333333333	0
bin	0.46666666666667	0
bin	0.5	0
statistic scenarioPRJP1.node[91].wlan.radio 	bitErrorRate:histogram
field count 0
field mean -nan
field stddev -nan
field sum 0
field sqrsum 0
field min -nan
field max -nan
attr source  bitErrorRate
attr title  "Bit error rate, histogram"
bin	-INF	0
bin	-0.5	0
bin	-0.46666666666667	0
bin	-0.43333333333333	0
bin	-0.4	0
bin	-0.36666666666667	0
bin	-0.33333333333333	0
bin	-0.3	0
bin	-0.26666666666667	0
bin	-0.23333333333333	0
bin	-0.2	0
bin	-0.16666666666667	0
bin	-0.13333333333333	0
bin	-0.1	0
bin	-0.066666666666667	0
bin	-0.033333333333333	0
bin	0	0
bin	0.033333333333333	0
bin	0.066666666666667	0
bin	0.1	0
bin	0.13333333333333	0
bin	0.16666666666667	0
bin	0.2	0
bin	0.23333333333333	0
bin	0.26666666666667	0
bin	0.3	0
bin	0.33333333333333	0
bin	0.36666666666667	0
bin	0.4	0
bin	0.43333333333333	0
bin	0.46666666666667	0
bin	0.5	0
statistic scenarioPRJP1.node[91].wlan.radio 	packetErrorRate:histogram
field count 55319
field mean 0.25626708388498
field stddev 0.42511016464758
field sum 14176.438813433
field sqrsum 13629.949030724
field min 0
field max 1
attr source  packetErrorRate
attr title  "Packet error rate, histogram"
bin	-INF	0
bin	-0.5	0
bin	-0.43333333333333	0
bin	-0.36666666666667	0
bin	-0.3	0
bin	-0.23333333333333	0
bin	-0.16666666666667	0
bin	-0.1	0
bin	-0.033333333333333	38921
bin	0.033333333333333	890
bin	0.1	442
bin	0.16666666666667	310
bin	0.23333333333333	222
bin	0.3	190
bin	0.36666666666667	182
bin	0.43333333333333	148
bin	0.5	159
bin	0.56666666666667	136
bin	0.63333333333333	147
bin	0.7	147
bin	0.76666666666667	175
bin	0.83333333333333	193
bin	0.9	279
bin	0.96666666666667	12778
bin	1.0333333333333	0
bin	1.1	0
bin	1.1666666666667	0
bin	1.2333333333333	0
bin	1.3	0
bin	1.3666666666667	0
bin	1.4333333333333	0
bin	1.5	0
statistic scenarioPRJP1.node[91].wlan.radio 	minSNIR:histogram
field count 55319
field mean 1823.4463564755
field stddev 19283.282018583
field sum 100871228.99387
field sqrsum 20753653071434
field min 0.00019706884818091
field max 753239.71923443
attr source  minSNIR
attr title  "Min SNIR, histogram"
bin	-INF	0
bin	-10654.735367812	0
bin	-9233.9804794023	0
bin	-7813.2255909923	0
bin	-6392.4707025823	0
bin	-4971.7158141723	0
bin	-3550.9609257623	0
bin	-2130.2060373523	0
bin	-709.45114894227	48482
bin	711.30373946773	1826
bin	2132.0586278777	940
bin	3552.8135162877	981
bin	4973.5684046977	637
bin	6394.3232931077	454
bin	7815.0781815177	312
bin	9235.8330699278	229
bin	10656.587958338	187
bin	12077.342846748	142
bin	13498.097735158	106
bin	14918.852623568	105
bin	16339.607511978	90
bin	17760.362400388	69
bin	19181.117288798	61
bin	20601.872177208	79
bin	22022.627065618	32
bin	23443.381954028	28
bin	24864.136842438	27
bin	26284.891730848	19
bin	27705.646619258	16
bin	29126.401507668	16
bin	30547.156396078	13
bin	31967.911284488	468
scalar scenarioPRJP1.node[91].lo0.lo 	droppedPkBitError:count 	0
attr interpolationmode  none
attr source  dropPkBitError
attr title  "packets dropped/bit error, count"
scalar scenarioPRJP1.node[91].lo0.lo 	droppedPkBitError:sum(packetBytes) 	0
attr interpolationmode  none
attr source  dropPkBitError
attr title  "packets dropped/bit error, sum(packetBytes)"
scalar scenarioPRJP1.node[91].lo0.lo 	rcvdPkFromHL:count 	20
attr interpolationmode  none
attr source  packetReceivedFromUpper
attr title  "packets received from higher layer, count"
scalar scenarioPRJP1.node[91].lo0.lo 	rcvdPkFromHL:sum(packetBytes) 	10400
attr interpolationmode  none
attr source  packetReceivedFromUpper
attr title  "packets received from higher layer, sum(packetBytes)"
scalar scenarioPRJP1.node[91].lo0.lo 	passedUpPk:count 	20
attr interpolationmode  none
attr source  packetSentToUpper
attr title  "packets passed to higher layer, count"
scalar scenarioPRJP1.node[91].lo0.lo 	passedUpPk:sum(packetBytes) 	10400
attr interpolationmode  none
attr source  packetSentToUpper
attr title  "packets passed to higher layer, sum(packetBytes)"
scalar scenarioPRJP1.node[57].app 	"Total sent" 	375
scalar scenarioPRJP1.node[57].app 	"Total received" 	31
scalar scenarioPRJP1.node[57].app 	"Total deleted" 	0
scalar scenarioPRJP1.node[57].app 	dropPk:count 	0
attr interpolationmode  none
attr source  dropPk
attr title  "packets dropped, count"
scalar scenarioPRJP1.node[57].app 	dropPk:sum(packetBytes) 	0
attr interpolationmode  none
attr source  dropPk
attr title  "packets dropped, sum(packetBytes)"
scalar scenarioPRJP1.node[57].app 	outOfOrderPk:count 	3
attr interpolationmode  none
attr source  outOfOrderPk
attr title  "packets received out of order, count"
scalar scenarioPRJP1.node[57].app 	outOfOrderPk:sum(packetBytes) 	1536
attr interpolationmode  none
attr source  outOfOrderPk
attr title  "packets received out of order, sum(packetBytes)"
scalar scenarioPRJP1.node[57].app 	rcvdPk:count 	31
attr interpolationmode  none
attr source  rcvdPk
attr title  "packets received, count"
scalar scenarioPRJP1.node[57].app 	rcvdPk:sum(packetBytes) 	15872
attr interpolationmode  none
attr source  rcvdPk
attr title  "packets received, sum(packetBytes)"
statistic scenarioPRJP1.node[57].app 	endToEndDelay:histogram
field count 31
field mean 1.817244586523
field stddev 4.5532620099803
field sum 56.334582182213
field sqrsum 724.33956245055
field min 0.002067507588
field max 16.358798372214
attr interpolationmode  none
attr source  messageAge(rcvdPk)
attr title  "delay, histogram"
attr unit  s
bin	-INF	0
bin	-8.176297924725	0
bin	-7.0858492004166	0
bin	-5.9954004761082	0
bin	-4.9049517517998	0
bin	-3.8145030274914	0
bin	-2.724054303183	0
bin	-1.6336055788746	0
bin	-0.5431568545662	24
bin	0.5472918697422	2
bin	1.6377405940506	1
bin	2.728189318359	0
bin	3.8186380426674	1
bin	4.9090867669758	0
bin	5.9995354912842	0
bin	7.0899842155926	0
bin	8.180432939901	0
bin	9.2708816642094	0
bin	10.361330388518	0
bin	11.451779112826	0
bin	12.542227837135	0
bin	13.632676561443	1
bin	14.723125285751	1
bin	15.81357401006	1
bin	16.904022734368	0
bin	17.994471458677	0
bin	19.084920182985	0
bin	20.175368907293	0
bin	21.265817631602	0
bin	22.35626635591	0
bin	23.446715080219	0
bin	24.537163804527	0
scalar scenarioPRJP1.node[57].app 	sentPk:count 	375
attr interpolationmode  none
attr source  sentPk
attr title  "packets sent, count"
scalar scenarioPRJP1.node[57].app 	sentPk:sum(packetBytes) 	192000
attr interpolationmode  none
attr source  sentPk
attr title  "packets sent, sum(packetBytes)"
scalar scenarioPRJP1.node[57].udp 	droppedPkBadChecksum:count 	0
attr interpolationmode  none
attr title  "packets dropped (checksum error), count"
scalar scenarioPRJP1.node[57].udp 	droppedPkWrongPort:count 	0
attr interpolationmode  none
attr title  "packets dropped (wrong port), count"
scalar scenarioPRJP1.node[57].udp 	passedUpPk:count 	34
attr interpolationmode  none
attr title  "packets passed up, count"
scalar scenarioPRJP1.node[57].udp 	rcvdPk:count 	34
attr interpolationmode  none
attr source  rcvdPk
attr title  "packets received, count"
scalar scenarioPRJP1.node[57].udp 	rcvdPk:sum(packetBytes) 	17680
attr interpolationmode  none
attr source  rcvdPk
attr title  "packets received, sum(packetBytes)"
scalar scenarioPRJP1.node[57].udp 	sentPk:count 	375
attr interpolationmode  none
attr source  sentPk
attr title  "packets sent, count"
scalar scenarioPRJP1.node[57].udp 	sentPk:sum(packetBytes) 	195000
attr interpolationmode  none
attr source  sentPk
attr title  "packets sent, sum(packetBytes)"
scalar scenarioPRJP1.node[57].networkLayer.arp 	failedARPResolution:count 	2
attr title  "ARP failed resolutions, count"
scalar scenarioPRJP1.node[57].networkLayer.arp 	completedARPResolution:count 	165
attr title  "ARP completed resolutions, count"
scalar scenarioPRJP1.node[57].networkLayer.arp 	initiatedARPResolution:count 	18
attr title  "ARP initiated resolutions, count"
scalar scenarioPRJP1.node[57].networkLayer.arp 	sentReply:count 	6
attr title  "ARP replies sent, count"
scalar scenarioPRJP1.node[57].networkLayer.arp 	sentReq:count 	32
attr title  "ARP request sent, count"
scalar scenarioPRJP1.node[57].mobility 	startTime 	4.9
scalar scenarioPRJP1.node[57].mobility 	totalTime 	156.2
scalar scenarioPRJP1.node[57].mobility 	stopTime 	161.2
scalar scenarioPRJP1.node[57].mobility 	minSpeed 	2.4786430634157e-13
scalar scenarioPRJP1.node[57].mobility 	maxSpeed 	17.727106066935
scalar scenarioPRJP1.node[57].mobility 	totalDistance 	1450.602426396
scalar scenarioPRJP1.node[57].mobility 	totalCO2Emission 	415.34877799327
scalar scenarioPRJP1.node[57].wlan.mgmt 	dataQueueLen:max 	17
attr interpolationmode  sample-hold
attr title  "data queue length, max"
scalar scenarioPRJP1.node[57].wlan.mgmt 	dataQueueLen:timeavg 	0.014801453723109
attr interpolationmode  sample-hold
attr title  "data queue length, timeavg"
scalar scenarioPRJP1.node[57].wlan.mgmt 	dropPkByQueue:count 	0
attr interpolationmode  none
attr source  dropPkByQueue
attr title  "packets dropped by queue, count"
scalar scenarioPRJP1.node[57].wlan.mgmt 	dropPkByQueue:sum(packetBytes) 	0
attr interpolationmode  none
attr source  dropPkByQueue
attr title  "packets dropped by queue, sum(packetBytes)"
scalar scenarioPRJP1.node[57].wlan.mac 	"number of received packets" 	1841
scalar scenarioPRJP1.node[57].wlan.mac 	"number of collisions" 	18914
scalar scenarioPRJP1.node[57].wlan.mac 	"number of internal collisions" 	0
scalar scenarioPRJP1.node[57].wlan.mac 	"number of retry for AC 0" 	4879
scalar scenarioPRJP1.node[57].wlan.mac 	"number of retry for AC 1" 	0
scalar scenarioPRJP1.node[57].wlan.mac 	"number of retry for AC 2" 	0
scalar scenarioPRJP1.node[57].wlan.mac 	"number of retry for AC 3" 	0
scalar scenarioPRJP1.node[57].wlan.mac 	"sent and received bits" 	5032768
scalar scenarioPRJP1.node[57].wlan.mac 	"sent packet within AC 0" 	1020
scalar scenarioPRJP1.node[57].wlan.mac 	"sent packet within AC 1" 	0
scalar scenarioPRJP1.node[57].wlan.mac 	"sent packet within AC 2" 	0
scalar scenarioPRJP1.node[57].wlan.mac 	"sent packet within AC 3" 	0
scalar scenarioPRJP1.node[57].wlan.mac 	"sent in TXOP " 	0
scalar scenarioPRJP1.node[57].wlan.mac 	"sentWithoutRetry AC 0" 	908
scalar scenarioPRJP1.node[57].wlan.mac 	"sentWithoutRetry AC 1" 	0
scalar scenarioPRJP1.node[57].wlan.mac 	"sentWithoutRetry AC 2" 	0
scalar scenarioPRJP1.node[57].wlan.mac 	"sentWithoutRetry AC 3" 	0
scalar scenarioPRJP1.node[57].wlan.mac 	"numGivenUp AC 0" 	778
scalar scenarioPRJP1.node[57].wlan.mac 	"numGivenUp AC 1" 	0
scalar scenarioPRJP1.node[57].wlan.mac 	"numGivenUp AC 2" 	0
scalar scenarioPRJP1.node[57].wlan.mac 	"numGivenUp AC 3" 	0
scalar scenarioPRJP1.node[57].wlan.mac 	"numDropped AC 0" 	18
scalar scenarioPRJP1.node[57].wlan.mac 	"numDropped AC 1" 	0
scalar scenarioPRJP1.node[57].wlan.mac 	"numDropped AC 2" 	0
scalar scenarioPRJP1.node[57].wlan.mac 	"numDropped AC 3" 	0
scalar scenarioPRJP1.node[57].wlan.mac 	rcvdPkFromLL:count 	82651
attr interpolationmode  none
attr source  packetReceivedFromLower
attr title  "packets received from lower layer, count"
scalar scenarioPRJP1.node[57].wlan.mac 	rcvdPkFromLL:sum(packetBytes) 	15202154
attr interpolationmode  none
attr source  packetReceivedFromLower
attr title  "packets received from lower layer, sum(packetBytes)"
scalar scenarioPRJP1.node[57].wlan.mac 	sentDownPk:count 	13677
attr interpolationmode  none
attr source  packetSentToLower
attr title  "packets sent to lower layer, count"
scalar scenarioPRJP1.node[57].wlan.mac 	sentDownPk:sum(packetBytes) 	2550254
attr interpolationmode  none
attr source  packetSentToLower
attr title  "packets sent to lower layer, sum(packetBytes)"
scalar scenarioPRJP1.node[57].wlan.mac 	rcvdPkFromHL:count 	6975
attr interpolationmode  none
attr source  packetReceivedFromUpper
attr title  "packets received from higher layer, count"
scalar scenarioPRJP1.node[57].wlan.mac 	rcvdPkFromHL:sum(packetBytes) 	893004
attr interpolationmode  none
attr source  packetReceivedFromUpper
attr title  "packets received from higher layer, sum(packetBytes)"
scalar scenarioPRJP1.node[57].wlan.mac 	passedUpPk:count 	25238
attr interpolationmode  none
attr source  packetSentToUpper
attr title  "packets passed to higher layer, count"
scalar scenarioPRJP1.node[57].wlan.mac 	passedUpPk:sum(packetBytes) 	2069684
attr interpolationmode  none
attr source  packetSentToUpper
attr title  "packets passed to higher layer, sum(packetBytes)"
statistic scenarioPRJP1.node[57].wlan.radio 	radioChannel:histogram
field count 1
field mean 3
field stddev -nan
field sum 3
field sqrsum 9
field min 3
field max 3
attr interpolationmode  sample-hold
attr source  radioChannelChanged
attr title  "Radio channel, histogram"
bin	-INF	0
bin	2	0
bin	3	1
bin	4	0
scalar scenarioPRJP1.node[57].wlan.radio 	transmissionState:count 	54708
attr interpolationmode  sample-hold
attr source  transmissionStateChanged
attr title  "Radio transmission state, count"
scalar scenarioPRJP1.node[57].wlan.radio 	receptionState:count 	196291
attr interpolationmode  sample-hold
attr source  receptionStateChanged
attr title  "Radio reception state, count"
scalar scenarioPRJP1.node[57].wlan.radio 	radioMode:count 	27356
attr interpolationmode  sample-hold
attr source  radioModeChanged
attr title  "Radio mode, count"
statistic scenarioPRJP1.node[57].wlan.radio 	symbolErrorRate:histogram
field count 0
field mean -nan
field stddev -nan
field sum 0
field sqrsum 0
field min -nan
field max -nan
attr source  symbolErrorRate
attr title  "Symbol error rate, histogram"
bin	-INF	0
bin	-0.5	0
bin	-0.46666666666667	0
bin	-0.43333333333333	0
bin	-0.4	0
bin	-0.36666666666667	0
bin	-0.33333333333333	0
bin	-0.3	0
bin	-0.26666666666667	0
bin	-0.23333333333333	0
bin	-0.2	0
bin	-0.16666666666667	0
bin	-0.13333333333333	0
bin	-0.1	0
bin	-0.066666666666667	0
bin	-0.033333333333333	0
bin	0	0
bin	0.033333333333333	0
bin	0.066666666666667	0
bin	0.1	0
bin	0.13333333333333	0
bin	0.16666666666667	0
bin	0.2	0
bin	0.23333333333333	0
bin	0.26666666666667	0
bin	0.3	0
bin	0.33333333333333	0
bin	0.36666666666667	0
bin	0.4	0
bin	0.43333333333333	0
bin	0.46666666666667	0
bin	0.5	0
statistic scenarioPRJP1.node[57].wlan.radio 	bitErrorRate:histogram
field count 0
field mean -nan
field stddev -nan
field sum 0
field sqrsum 0
field min -nan
field max -nan
attr source  bitErrorRate
attr title  "Bit error rate, histogram"
bin	-INF	0
bin	-0.5	0
bin	-0.46666666666667	0
bin	-0.43333333333333	0
bin	-0.4	0
bin	-0.36666666666667	0
bin	-0.33333333333333	0
bin	-0.3	0
bin	-0.26666666666667	0
bin	-0.23333333333333	0
bin	-0.2	0
bin	-0.16666666666667	0
bin	-0.13333333333333	0
bin	-0.1	0
bin	-0.066666666666667	0
bin	-0.033333333333333	0
bin	0	0
bin	0.033333333333333	0
bin	0.066666666666667	0
bin	0.1	0
bin	0.13333333333333	0
bin	0.16666666666667	0
bin	0.2	0
bin	0.23333333333333	0
bin	0.26666666666667	0
bin	0.3	0
bin	0.33333333333333	0
bin	0.36666666666667	0
bin	0.4	0
bin	0.43333333333333	0
bin	0.46666666666667	0
bin	0.5	0
statistic scenarioPRJP1.node[57].wlan.radio 	packetErrorRate:histogram
field count 82651
field mean 0.20468308400923
field stddev 0.39407264210698
field sum 16917.261576447
field sqrsum 16297.664158264
field min 0
field max 1
attr source  packetErrorRate
attr title  "Packet error rate, histogram"
bin	-INF	0
bin	-1	0
bin	0	69208
bin	1	13443
bin	2	0
statistic scenarioPRJP1.node[57].wlan.radio 	minSNIR:histogram
field count 82651
field mean 616.00322363304
field stddev 4947.5425981662
field sum 50913282.436494
field sqrsum 2054484138025.9
field min 0.00071997819372949
field max 664676.0982831
attr source  minSNIR
attr title  "Min SNIR, histogram"
bin	-INF	0
bin	-1313.0458534318	0
bin	-1137.936628475	0
bin	-962.82740351825	0
bin	-787.71817856148	0
bin	-612.6089536047	0
bin	-437.49972864793	0
bin	-262.39050369116	0
bin	-87.281278734386	56862
bin	87.827946222386	8290
bin	262.93717117916	2695
bin	438.04639613593	1735
bin	613.1556210927	1713
bin	788.26484604948	1586
bin	963.37407100625	1391
bin	1138.483295963	1137
bin	1313.5925209198	979
bin	1488.7017458766	779
bin	1663.8109708333	570
bin	1838.9201957901	482
bin	2014.0294207469	379
bin	2189.1386457037	352
bin	2364.2478706604	325
bin	2539.3570956172	258
bin	2714.466320574	231
bin	2889.5755455308	197
bin	3064.6847704875	156
bin	3239.7939954443	168
bin	3414.9032204011	119
bin	3590.0124453578	122
bin	3765.1216703146	115
bin	3940.2308952714	2010
scalar scenarioPRJP1.node[57].lo0.lo 	droppedPkBitError:count 	0
attr interpolationmode  none
attr source  dropPkBitError
attr title  "packets dropped/bit error, count"
scalar scenarioPRJP1.node[57].lo0.lo 	droppedPkBitError:sum(packetBytes) 	0
attr interpolationmode  none
attr source  dropPkBitError
attr title  "packets dropped/bit error, sum(packetBytes)"
scalar scenarioPRJP1.node[57].lo0.lo 	rcvdPkFromHL:count 	34
attr interpolationmode  none
attr source  packetReceivedFromUpper
attr title  "packets received from higher layer, count"
scalar scenarioPRJP1.node[57].lo0.lo 	rcvdPkFromHL:sum(packetBytes) 	17680
attr interpolationmode  none
attr source  packetReceivedFromUpper
attr title  "packets received from higher layer, sum(packetBytes)"
scalar scenarioPRJP1.node[57].lo0.lo 	passedUpPk:count 	34
attr interpolationmode  none
attr source  packetSentToUpper
attr title  "packets passed to higher layer, count"
scalar scenarioPRJP1.node[57].lo0.lo 	passedUpPk:sum(packetBytes) 	17680
attr interpolationmode  none
attr source  packetSentToUpper
attr title  "packets passed to higher layer, sum(packetBytes)"
scalar scenarioPRJP1.node[33].app 	"Total sent" 	613
scalar scenarioPRJP1.node[33].app 	"Total received" 	33
scalar scenarioPRJP1.node[33].app 	"Total deleted" 	3
scalar scenarioPRJP1.node[33].app 	dropPk:count 	3
attr interpolationmode  none
attr source  dropPk
attr title  "packets dropped, count"
scalar scenarioPRJP1.node[33].app 	dropPk:sum(packetBytes) 	1536
attr interpolationmode  none
attr source  dropPk
attr title  "packets dropped, sum(packetBytes)"
scalar scenarioPRJP1.node[33].app 	outOfOrderPk:count 	8
attr interpolationmode  none
attr source  outOfOrderPk
attr title  "packets received out of order, count"
scalar scenarioPRJP1.node[33].app 	outOfOrderPk:sum(packetBytes) 	4096
attr interpolationmode  none
attr source  outOfOrderPk
attr title  "packets received out of order, sum(packetBytes)"
scalar scenarioPRJP1.node[33].app 	rcvdPk:count 	33
attr interpolationmode  none
attr source  rcvdPk
attr title  "packets received, count"
scalar scenarioPRJP1.node[33].app 	rcvdPk:sum(packetBytes) 	16896
attr interpolationmode  none
attr source  rcvdPk
attr title  "packets received, sum(packetBytes)"
statistic scenarioPRJP1.node[33].app 	endToEndDelay:histogram
field count 33
field mean 3.8078274222906
field stddev 5.9646819068991
field sum 125.65830493559
field sqrsum 1616.9629073879
field min 0.002076692906
field max 18.957035455367
attr interpolationmode  none
attr source  messageAge(rcvdPk)
attr title  "delay, histogram"
attr unit  s
bin	-INF	0
bin	-9.4754026883245	0
bin	-8.2117387708271	0
bin	-6.9480748533297	0
bin	-5.6844109358323	0
bin	-4.4207470183349	0
bin	-3.1570831008375	0
bin	-1.8934191833401	0
bin	-0.6297552658427	16
bin	0.6339086516547	5
bin	1.8975725691521	2
bin	3.1612364866495	1
bin	4.4249004041469	2
bin	5.6885643216443	0
bin	6.9522282391417	1
bin	8.2158921566391	0
bin	9.4795560741365	1
bin	10.743219991634	0
bin	12.006883909131	0
bin	13.270547826629	2
bin	14.534211744126	0
bin	15.797875661624	1
bin	17.061539579121	0
bin	18.325203496618	2
bin	19.588867414116	0
bin	20.852531331613	0
bin	22.11619524911	0
bin	23.379859166608	0
bin	24.643523084105	0
bin	25.907187001603	0
bin	27.1708509191	0
bin	28.434514836597	0
scalar scenarioPRJP1.node[33].app 	sentPk:count 	613
attr interpolationmode  none
attr source  sentPk
attr title  "packets sent, count"
scalar scenarioPRJP1.node[33].app 	sentPk:sum(packetBytes) 	313856
attr interpolationmode  none
attr source  sentPk
attr title  "packets sent, sum(packetBytes)"
scalar scenarioPRJP1.node[33].udp 	droppedPkBadChecksum:count 	0
attr interpolationmode  none
attr title  "packets dropped (checksum error), count"
scalar scenarioPRJP1.node[33].udp 	droppedPkWrongPort:count 	0
attr interpolationmode  none
attr title  "packets dropped (wrong port), count"
scalar scenarioPRJP1.node[33].udp 	passedUpPk:count 	44
attr interpolationmode  none
attr title  "packets passed up, count"
scalar scenarioPRJP1.node[33].udp 	rcvdPk:count 	44
attr interpolationmode  none
attr source  rcvdPk
attr title  "packets received, count"
scalar scenarioPRJP1.node[33].udp 	rcvdPk:sum(packetBytes) 	22880
attr interpolationmode  none
attr source  rcvdPk
attr title  "packets received, sum(packetBytes)"
scalar scenarioPRJP1.node[33].udp 	sentPk:count 	613
attr interpolationmode  none
attr source  sentPk
attr title  "packets sent, count"
scalar scenarioPRJP1.node[33].udp 	sentPk:sum(packetBytes) 	318760
attr interpolationmode  none
attr source  sentPk
attr title  "packets sent, sum(packetBytes)"
scalar scenarioPRJP1.node[33].networkLayer.arp 	failedARPResolution:count 	3
attr title  "ARP failed resolutions, count"
scalar scenarioPRJP1.node[33].networkLayer.arp 	completedARPResolution:count 	196
attr title  "ARP completed resolutions, count"
scalar scenarioPRJP1.node[33].networkLayer.arp 	initiatedARPResolution:count 	25
attr title  "ARP initiated resolutions, count"
scalar scenarioPRJP1.node[33].networkLayer.arp 	sentReply:count 	17
attr title  "ARP replies sent, count"
scalar scenarioPRJP1.node[33].networkLayer.arp 	sentReq:count 	38
attr title  "ARP request sent, count"
scalar scenarioPRJP1.node[33].mobility 	startTime 	2.5
scalar scenarioPRJP1.node[33].mobility 	totalTime 	244.6
scalar scenarioPRJP1.node[33].mobility 	stopTime 	247.2
scalar scenarioPRJP1.node[33].mobility 	minSpeed 	2.4755357667713e-13
scalar scenarioPRJP1.node[33].mobility 	maxSpeed 	16.863635720575
scalar scenarioPRJP1.node[33].mobility 	totalDistance 	2233.6159888696
scalar scenarioPRJP1.node[33].mobility 	totalCO2Emission 	640.8963158448
scalar scenarioPRJP1.node[33].wlan.mgmt 	dataQueueLen:max 	16
attr interpolationmode  sample-hold
attr title  "data queue length, max"
scalar scenarioPRJP1.node[33].wlan.mgmt 	dataQueueLen:timeavg 	0
attr interpolationmode  sample-hold
attr title  "data queue length, timeavg"
scalar scenarioPRJP1.node[33].wlan.mgmt 	dropPkByQueue:count 	0
attr interpolationmode  none
attr source  dropPkByQueue
attr title  "packets dropped by queue, count"
scalar scenarioPRJP1.node[33].wlan.mgmt 	dropPkByQueue:sum(packetBytes) 	0
attr interpolationmode  none
attr source  dropPkByQueue
attr title  "packets dropped by queue, sum(packetBytes)"
scalar scenarioPRJP1.node[33].wlan.mac 	"number of received packets" 	4021
scalar scenarioPRJP1.node[33].wlan.mac 	"number of collisions" 	28648
scalar scenarioPRJP1.node[33].wlan.mac 	"number of internal collisions" 	0
scalar scenarioPRJP1.node[33].wlan.mac 	"number of retry for AC 0" 	8414
scalar scenarioPRJP1.node[33].wlan.mac 	"number of retry for AC 1" 	0
scalar scenarioPRJP1.node[33].wlan.mac 	"number of retry for AC 2" 	0
scalar scenarioPRJP1.node[33].wlan.mac 	"number of retry for AC 3" 	0
scalar scenarioPRJP1.node[33].wlan.mac 	"sent and received bits" 	7897344
scalar scenarioPRJP1.node[33].wlan.mac 	"sent packet within AC 0" 	1589
scalar scenarioPRJP1.node[33].wlan.mac 	"sent packet within AC 1" 	0
scalar scenarioPRJP1.node[33].wlan.mac 	"sent packet within AC 2" 	0
scalar scenarioPRJP1.node[33].wlan.mac 	"sent packet within AC 3" 	0
scalar scenarioPRJP1.node[33].wlan.mac 	"sent in TXOP " 	0
scalar scenarioPRJP1.node[33].wlan.mac 	"sentWithoutRetry AC 0" 	1426
scalar scenarioPRJP1.node[33].wlan.mac 	"sentWithoutRetry AC 1" 	0
scalar scenarioPRJP1.node[33].wlan.mac 	"sentWithoutRetry AC 2" 	0
scalar scenarioPRJP1.node[33].wlan.mac 	"sentWithoutRetry AC 3" 	0
scalar scenarioPRJP1.node[33].wlan.mac 	"numGivenUp AC 0" 	1347
scalar scenarioPRJP1.node[33].wlan.mac 	"numGivenUp AC 1" 	0
scalar scenarioPRJP1.node[33].wlan.mac 	"numGivenUp AC 2" 	0
scalar scenarioPRJP1.node[33].wlan.mac 	"numGivenUp AC 3" 	0
scalar scenarioPRJP1.node[33].wlan.mac 	"numDropped AC 0" 	0
scalar scenarioPRJP1.node[33].wlan.mac 	"numDropped AC 1" 	0
scalar scenarioPRJP1.node[33].wlan.mac 	"numDropped AC 2" 	0
scalar scenarioPRJP1.node[33].wlan.mac 	"numDropped AC 3" 	0
scalar scenarioPRJP1.node[33].wlan.mac 	rcvdPkFromLL:count 	116917
attr interpolationmode  none
attr source  packetReceivedFromLower
attr title  "packets received from lower layer, count"
scalar scenarioPRJP1.node[33].wlan.mac 	rcvdPkFromLL:sum(packetBytes) 	23426846
attr interpolationmode  none
attr source  packetReceivedFromLower
attr title  "packets received from lower layer, sum(packetBytes)"
scalar scenarioPRJP1.node[33].wlan.mac 	sentDownPk:count 	22646
attr interpolationmode  none
attr source  packetSentToLower
attr title  "packets sent to lower layer, count"
scalar scenarioPRJP1.node[33].wlan.mac 	sentDownPk:sum(packetBytes) 	4291890
attr interpolationmode  none
attr source  packetSentToLower
attr title  "packets sent to lower layer, sum(packetBytes)"
scalar scenarioPRJP1.node[33].wlan.mac 	rcvdPkFromHL:count 	10211
attr interpolationmode  none
attr source  packetReceivedFromUpper
attr title  "packets received from higher layer, count"
scalar scenarioPRJP1.node[33].wlan.mac 	rcvdPkFromHL:sum(packetBytes) 	1433184
attr interpolationmode  none
attr source  packetReceivedFromUpper
attr title  "packets received from higher layer, sum(packetBytes)"
scalar scenarioPRJP1.node[33].wlan.mac 	passedUpPk:count 	27651
attr interpolationmode  none
attr source  packetSentToUpper
attr title  "packets passed to higher layer, count"
scalar scenarioPRJP1.node[33].wlan.mac 	passedUpPk:sum(packetBytes) 	2415096
attr interpolationmode  none
attr source  packetSentToUpper
attr title  "packets passed to higher layer, sum(packetBytes)"
statistic scenarioPRJP1.node[33].wlan.radio 	radioChannel:histogram
field count 1
field mean 3
field stddev -nan
field sum 3
field sqrsum 9
field min 3
field max 3
attr interpolationmode  sample-hold
attr source  radioChannelChanged
attr title  "Radio channel, histogram"
bin	-INF	0
bin	2	0
bin	3	1
bin	4	0
scalar scenarioPRJP1.node[33].wlan.radio 	transmissionState:count 	90584
attr interpolationmode  sample-hold
attr source  transmissionStateChanged
attr title  "Radio transmission state, count"
scalar scenarioPRJP1.node[33].wlan.radio 	receptionState:count 	283765
attr interpolationmode  sample-hold
attr source  receptionStateChanged
attr title  "Radio reception state, count"
scalar scenarioPRJP1.node[33].wlan.radio 	radioMode:count 	45294
attr interpolationmode  sample-hold
attr source  radioModeChanged
attr title  "Radio mode, count"
statistic scenarioPRJP1.node[33].wlan.radio 	symbolErrorRate:histogram
field count 0
field mean -nan
field stddev -nan
field sum 0
field sqrsum 0
field min -nan
field max -nan
attr source  symbolErrorRate
attr title  "Symbol error rate, histogram"
bin	-INF	0
bin	-0.5	0
bin	-0.46666666666667	0
bin	-0.43333333333333	0
bin	-0.4	0
bin	-0.36666666666667	0
bin	-0.33333333333333	0
bin	-0.3	0
bin	-0.26666666666667	0
bin	-0.23333333333333	0
bin	-0.2	0
bin	-0.16666666666667	0
bin	-0.13333333333333	0
bin	-0.1	0
bin	-0.066666666666667	0
bin	-0.033333333333333	0
bin	0	0
bin	0.033333333333333	0
bin	0.066666666666667	0
bin	0.1	0
bin	0.13333333333333	0
bin	0.16666666666667	0
bin	0.2	0
bin	0.23333333333333	0
bin	0.26666666666667	0
bin	0.3	0
bin	0.33333333333333	0
bin	0.36666666666667	0
bin	0.4	0
bin	0.43333333333333	0
bin	0.46666666666667	0
bin	0.5	0
statistic scenarioPRJP1.node[33].wlan.radio 	bitErrorRate:histogram
field count 0
field mean -nan
field stddev -nan
field sum 0
field sqrsum 0
field min -nan
field max -nan
attr source  bitErrorRate
attr title  "Bit error rate, histogram"
bin	-INF	0
bin	-0.5	0
bin	-0.46666666666667	0
bin	-0.43333333333333	0
bin	-0.4	0
bin	-0.36666666666667	0
bin	-0.33333333333333	0
bin	-0.3	0
bin	-0.26666666666667	0
bin	-0.23333333333333	0
bin	-0.2	0
bin	-0.16666666666667	0
bin	-0.13333333333333	0
bin	-0.1	0
bin	-0.066666666666667	0
bin	-0.033333333333333	0
bin	0	0
bin	0.033333333333333	0
bin	0.066666666666667	0
bin	0.1	0
bin	0.13333333333333	0
bin	0.16666666666667	0
bin	0.2	0
bin	0.23333333333333	0
bin	0.26666666666667	0
bin	0.3	0
bin	0.33333333333333	0
bin	0.36666666666667	0
bin	0.4	0
bin	0.43333333333333	0
bin	0.46666666666667	0
bin	0.5	0
statistic scenarioPRJP1.node[33].wlan.radio 	packetErrorRate:histogram
field count 116917
field mean 0.22281463588152
field stddev 0.40613963173305
field sum 26050.81878336
field sqrsum 25089.727806309
field min 0
field max 1
attr source  packetErrorRate
attr title  "Packet error rate, histogram"
bin	-INF	0
bin	-0.5	0
bin	-0.43333333333333	0
bin	-0.36666666666667	0
bin	-0.3	0
bin	-0.23333333333333	0
bin	-0.16666666666667	0
bin	-0.1	0
bin	-0.033333333333333	86838
bin	0.033333333333333	1716
bin	0.1	722
bin	0.16666666666667	561
bin	0.23333333333333	438
bin	0.3	345
bin	0.36666666666667	324
bin	0.43333333333333	257
bin	0.5	264
bin	0.56666666666667	240
bin	0.63333333333333	233
bin	0.7	242
bin	0.76666666666667	279
bin	0.83333333333333	310
bin	0.9	504
bin	0.96666666666667	23644
bin	1.0333333333333	0
bin	1.1	0
bin	1.1666666666667	0
bin	1.2333333333333	0
bin	1.3	0
bin	1.3666666666667	0
bin	1.4333333333333	0
bin	1.5	0
statistic scenarioPRJP1.node[33].wlan.radio 	minSNIR:histogram
field count 116917
field mean 1857.2647025849
field stddev 17754.559530279
field sum 217145817.23212
field sqrsum 37258071354757
field min 0.00016869762803394
field max 753239.71923443
attr source  minSNIR
attr title  "Min SNIR, histogram"
bin	-INF	0
bin	-193.80111372512	0
bin	-167.77208736183	0
bin	-141.74306099855	0
bin	-115.71403463526	0
bin	-89.685008271979	0
bin	-63.655981908695	0
bin	-37.62695554541	0
bin	-11.597929182126	60423
bin	14.431097181158	14575
bin	40.460123544442	4652
bin	66.489149907727	3042
bin	92.518176271011	1947
bin	118.5472026343	1651
bin	144.57622899758	1318
bin	170.60525536086	1129
bin	196.63428172415	841
bin	222.66330808743	786
bin	248.69233445072	612
bin	274.721360814	534
bin	300.75038717728	492
bin	326.77941354057	533
bin	352.80843990385	414
bin	378.83746626714	384
bin	404.86649263042	318
bin	430.89551899371	360
bin	456.92454535699	258
bin	482.95357172027	298
bin	508.98259808356	253
bin	535.01162444684	254
bin	561.04065081013	251
bin	587.06967717341	21592
scalar scenarioPRJP1.node[33].lo0.lo 	droppedPkBitError:count 	0
attr interpolationmode  none
attr source  dropPkBitError
attr title  "packets dropped/bit error, count"
scalar scenarioPRJP1.node[33].lo0.lo 	droppedPkBitError:sum(packetBytes) 	0
attr interpolationmode  none
attr source  dropPkBitError
attr title  "packets dropped/bit error, sum(packetBytes)"
scalar scenarioPRJP1.node[33].lo0.lo 	rcvdPkFromHL:count 	44
attr interpolationmode  none
attr source  packetReceivedFromUpper
attr title  "packets received from higher layer, count"
scalar scenarioPRJP1.node[33].lo0.lo 	rcvdPkFromHL:sum(packetBytes) 	22880
attr interpolationmode  none
attr source  packetReceivedFromUpper
attr title  "packets received from higher layer, sum(packetBytes)"
scalar scenarioPRJP1.node[33].lo0.lo 	passedUpPk:count 	44
attr interpolationmode  none
attr source  packetSentToUpper
attr title  "packets passed to higher layer, count"
scalar scenarioPRJP1.node[33].lo0.lo 	passedUpPk:sum(packetBytes) 	22880
attr interpolationmode  none
attr source  packetSentToUpper
attr title  "packets passed to higher layer, sum(packetBytes)"
scalar scenarioPRJP1.node[84].app 	"Total sent" 	723
scalar scenarioPRJP1.node[84].app 	"Total received" 	50
scalar scenarioPRJP1.node[84].app 	"Total deleted" 	1
scalar scenarioPRJP1.node[84].app 	dropPk:count 	1
attr interpolationmode  none
attr source  dropPk
attr title  "packets dropped, count"
scalar scenarioPRJP1.node[84].app 	dropPk:sum(packetBytes) 	512
attr interpolationmode  none
attr source  dropPk
attr title  "packets dropped, sum(packetBytes)"
scalar scenarioPRJP1.node[84].app 	outOfOrderPk:count 	6
attr interpolationmode  none
attr source  outOfOrderPk
attr title  "packets received out of order, count"
scalar scenarioPRJP1.node[84].app 	outOfOrderPk:sum(packetBytes) 	3072
attr interpolationmode  none
attr source  outOfOrderPk
attr title  "packets received out of order, sum(packetBytes)"
scalar scenarioPRJP1.node[84].app 	rcvdPk:count 	50
attr interpolationmode  none
attr source  rcvdPk
attr title  "packets received, count"
scalar scenarioPRJP1.node[84].app 	rcvdPk:sum(packetBytes) 	25600
attr interpolationmode  none
attr source  rcvdPk
attr title  "packets received, sum(packetBytes)"
statistic scenarioPRJP1.node[84].app 	endToEndDelay:histogram
field count 50
field mean 0.77905098141226
field stddev 2.1271296895357
field sum 38.952549070613
field sqrsum 252.05537667109
field min 0.000964011007
field max 11.601142601639
attr interpolationmode  none
attr source  messageAge(rcvdPk)
attr title  "delay, histogram"
attr unit  s
bin	-INF	0
bin	-5.799125284309	0
bin	-5.0257800449335	0
bin	-4.2524348055581	0
bin	-3.4790895661826	0
bin	-2.7057443268071	0
bin	-1.9323990874317	0
bin	-1.1590538480562	0
bin	-0.38570860868073	38
bin	0.38763663069473	6
bin	1.1609818700702	2
bin	1.9343271094457	0
bin	2.7076723488211	0
bin	3.4810175881966	1
bin	4.2543628275721	0
bin	5.0277080669475	0
bin	5.801053306323	1
bin	6.5743985456985	1
bin	7.3477437850739	0
bin	8.1210890244494	0
bin	8.8944342638249	0
bin	9.6677795032003	0
bin	10.441124742576	0
bin	11.214469981951	1
bin	11.987815221327	0
bin	12.761160460702	0
bin	13.534505700078	0
bin	14.307850939453	0
bin	15.081196178829	0
bin	15.854541418204	0
bin	16.62788665758	0
bin	17.401231896955	0
scalar scenarioPRJP1.node[84].app 	sentPk:count 	723
attr interpolationmode  none
attr source  sentPk
attr title  "packets sent, count"
scalar scenarioPRJP1.node[84].app 	sentPk:sum(packetBytes) 	370176
attr interpolationmode  none
attr source  sentPk
attr title  "packets sent, sum(packetBytes)"
scalar scenarioPRJP1.node[84].udp 	droppedPkBadChecksum:count 	0
attr interpolationmode  none
attr title  "packets dropped (checksum error), count"
scalar scenarioPRJP1.node[84].udp 	droppedPkWrongPort:count 	0
attr interpolationmode  none
attr title  "packets dropped (wrong port), count"
scalar scenarioPRJP1.node[84].udp 	passedUpPk:count 	57
attr interpolationmode  none
attr title  "packets passed up, count"
scalar scenarioPRJP1.node[84].udp 	rcvdPk:count 	57
attr interpolationmode  none
attr source  rcvdPk
attr title  "packets received, count"
scalar scenarioPRJP1.node[84].udp 	rcvdPk:sum(packetBytes) 	29640
attr interpolationmode  none
attr source  rcvdPk
attr title  "packets received, sum(packetBytes)"
scalar scenarioPRJP1.node[84].udp 	sentPk:count 	723
attr interpolationmode  none
attr source  sentPk
attr title  "packets sent, count"
scalar scenarioPRJP1.node[84].udp 	sentPk:sum(packetBytes) 	375960
attr interpolationmode  none
attr source  sentPk
attr title  "packets sent, sum(packetBytes)"
scalar scenarioPRJP1.node[84].networkLayer.arp 	failedARPResolution:count 	9
attr title  "ARP failed resolutions, count"
scalar scenarioPRJP1.node[84].networkLayer.arp 	completedARPResolution:count 	381
attr title  "ARP completed resolutions, count"
scalar scenarioPRJP1.node[84].networkLayer.arp 	initiatedARPResolution:count 	39
attr title  "ARP initiated resolutions, count"
scalar scenarioPRJP1.node[84].networkLayer.arp 	sentReply:count 	26
attr title  "ARP replies sent, count"
scalar scenarioPRJP1.node[84].networkLayer.arp 	sentReq:count 	73
attr title  "ARP request sent, count"
scalar scenarioPRJP1.node[84].mobility 	startTime 	9.7
scalar scenarioPRJP1.node[84].mobility 	totalTime 	272.8
scalar scenarioPRJP1.node[84].mobility 	stopTime 	282.6
scalar scenarioPRJP1.node[84].mobility 	minSpeed 	2.4755078661931e-13
scalar scenarioPRJP1.node[84].mobility 	maxSpeed 	18.78939340287
scalar scenarioPRJP1.node[84].mobility 	totalDistance 	2205.0465977364
scalar scenarioPRJP1.node[84].mobility 	totalCO2Emission 	716.18690513272
scalar scenarioPRJP1.node[84].wlan.mgmt 	dataQueueLen:max 	100
attr interpolationmode  sample-hold
attr title  "data queue length, max"
scalar scenarioPRJP1.node[84].wlan.mgmt 	dataQueueLen:timeavg 	1.6573818309892
attr interpolationmode  sample-hold
attr title  "data queue length, timeavg"
scalar scenarioPRJP1.node[84].wlan.mgmt 	dropPkByQueue:count 	110
attr interpolationmode  none
attr source  dropPkByQueue
attr title  "packets dropped by queue, count"
scalar scenarioPRJP1.node[84].wlan.mgmt 	dropPkByQueue:sum(packetBytes) 	21900
attr interpolationmode  none
attr source  dropPkByQueue
attr title  "packets dropped by queue, sum(packetBytes)"
scalar scenarioPRJP1.node[84].wlan.mac 	"number of received packets" 	4641
scalar scenarioPRJP1.node[84].wlan.mac 	"number of collisions" 	43330
scalar scenarioPRJP1.node[84].wlan.mac 	"number of internal collisions" 	0
scalar scenarioPRJP1.node[84].wlan.mac 	"number of retry for AC 0" 	10650
scalar scenarioPRJP1.node[84].wlan.mac 	"number of retry for AC 1" 	0
scalar scenarioPRJP1.node[84].wlan.mac 	"number of retry for AC 2" 	0
scalar scenarioPRJP1.node[84].wlan.mac 	"number of retry for AC 3" 	0
scalar scenarioPRJP1.node[84].wlan.mac 	"sent and received bits" 	10016576
scalar scenarioPRJP1.node[84].wlan.mac 	"sent packet within AC 0" 	2852
scalar scenarioPRJP1.node[84].wlan.mac 	"sent packet within AC 1" 	0
scalar scenarioPRJP1.node[84].wlan.mac 	"sent packet within AC 2" 	0
scalar scenarioPRJP1.node[84].wlan.mac 	"sent packet within AC 3" 	0
scalar scenarioPRJP1.node[84].wlan.mac 	"sent in TXOP " 	0
scalar scenarioPRJP1.node[84].wlan.mac 	"sentWithoutRetry AC 0" 	2565
scalar scenarioPRJP1.node[84].wlan.mac 	"sentWithoutRetry AC 1" 	0
scalar scenarioPRJP1.node[84].wlan.mac 	"sentWithoutRetry AC 2" 	0
scalar scenarioPRJP1.node[84].wlan.mac 	"sentWithoutRetry AC 3" 	0
scalar scenarioPRJP1.node[84].wlan.mac 	"numGivenUp AC 0" 	1685
scalar scenarioPRJP1.node[84].wlan.mac 	"numGivenUp AC 1" 	0
scalar scenarioPRJP1.node[84].wlan.mac 	"numGivenUp AC 2" 	0
scalar scenarioPRJP1.node[84].wlan.mac 	"numGivenUp AC 3" 	0
scalar scenarioPRJP1.node[84].wlan.mac 	"numDropped AC 0" 	398
scalar scenarioPRJP1.node[84].wlan.mac 	"numDropped AC 1" 	0
scalar scenarioPRJP1.node[84].wlan.mac 	"numDropped AC 2" 	0
scalar scenarioPRJP1.node[84].wlan.mac 	"numDropped AC 3" 	0
scalar scenarioPRJP1.node[84].wlan.mac 	rcvdPkFromLL:count 	191524
attr interpolationmode  none
attr source  packetReceivedFromLower
attr title  "packets received from lower layer, count"
scalar scenarioPRJP1.node[84].wlan.mac 	rcvdPkFromLL:sum(packetBytes) 	41785302
attr interpolationmode  none
attr source  packetReceivedFromLower
attr title  "packets received from lower layer, sum(packetBytes)"
scalar scenarioPRJP1.node[84].wlan.mac 	sentDownPk:count 	26542
attr interpolationmode  none
attr source  packetSentToLower
attr title  "packets sent to lower layer, count"
scalar scenarioPRJP1.node[84].wlan.mac 	sentDownPk:sum(packetBytes) 	5651706
attr interpolationmode  none
attr source  packetSentToLower
attr title  "packets sent to lower layer, sum(packetBytes)"
scalar scenarioPRJP1.node[84].wlan.mac 	rcvdPkFromHL:count 	11649
attr interpolationmode  none
attr source  packetReceivedFromUpper
attr title  "packets received from higher layer, count"
scalar scenarioPRJP1.node[84].wlan.mac 	rcvdPkFromHL:sum(packetBytes) 	1921332
attr interpolationmode  none
attr source  packetReceivedFromUpper
attr title  "packets received from higher layer, sum(packetBytes)"
scalar scenarioPRJP1.node[84].wlan.mac 	passedUpPk:count 	34737
attr interpolationmode  none
attr source  packetSentToUpper
attr title  "packets passed to higher layer, count"
scalar scenarioPRJP1.node[84].wlan.mac 	passedUpPk:sum(packetBytes) 	3136596
attr interpolationmode  none
attr source  packetSentToUpper
attr title  "packets passed to higher layer, sum(packetBytes)"
statistic scenarioPRJP1.node[84].wlan.radio 	radioChannel:histogram
field count 1
field mean 3
field stddev -nan
field sum 3
field sqrsum 9
field min 3
field max 3
attr interpolationmode  sample-hold
attr source  radioChannelChanged
attr title  "Radio channel, histogram"
bin	-INF	0
bin	2	0
bin	3	1
bin	4	0
scalar scenarioPRJP1.node[84].wlan.radio 	transmissionState:count 	106168
attr interpolationmode  sample-hold
attr source  transmissionStateChanged
attr title  "Radio transmission state, count"
scalar scenarioPRJP1.node[84].wlan.radio 	receptionState:count 	447115
attr interpolationmode  sample-hold
attr source  receptionStateChanged
attr title  "Radio reception state, count"
scalar scenarioPRJP1.node[84].wlan.radio 	radioMode:count 	53086
attr interpolationmode  sample-hold
attr source  radioModeChanged
attr title  "Radio mode, count"
statistic scenarioPRJP1.node[84].wlan.radio 	symbolErrorRate:histogram
field count 0
field mean -nan
field stddev -nan
field sum 0
field sqrsum 0
field min -nan
field max -nan
attr source  symbolErrorRate
attr title  "Symbol error rate, histogram"
bin	-INF	0
bin	-0.5	0
bin	-0.46666666666667	0
bin	-0.43333333333333	0
bin	-0.4	0
bin	-0.36666666666667	0
bin	-0.33333333333333	0
bin	-0.3	0
bin	-0.26666666666667	0
bin	-0.23333333333333	0
bin	-0.2	0
bin	-0.16666666666667	0
bin	-0.13333333333333	0
bin	-0.1	0
bin	-0.066666666666667	0
bin	-0.033333333333333	0
bin	0	0
[...]
attr source  radioChannelChanged
attr title  "Radio channel, histogram"
bin	-INF	0
bin	2	0
bin	3	1
bin	4	0
scalar scenarioPRJP1.node[75].wlan.radio 	transmissionState:count 	226908
attr interpolationmode  sample-hold
attr source  transmissionStateChanged
attr title  "Radio transmission state, count"
scalar scenarioPRJP1.node[75].wlan.radio 	receptionState:count 	701572
attr interpolationmode  sample-hold
attr source  receptionStateChanged
attr title  "Radio reception state, count"
scalar scenarioPRJP1.node[75].wlan.radio 	radioMode:count 	113456
attr interpolationmode  sample-hold
attr source  radioModeChanged
attr title  "Radio mode, count"
statistic scenarioPRJP1.node[75].wlan.radio 	symbolErrorRate:histogram
field count 0
field mean -nan
field stddev -nan
field sum 0
field sqrsum 0
field min -nan
field max -nan
attr source  symbolErrorRate
attr title  "Symbol error rate, histogram"
bin	-INF	0
bin	-0.5	0
bin	-0.46666666666667	0
bin	-0.43333333333333	0
bin	-0.4	0
bin	-0.36666666666667	0
bin	-0.33333333333333	0
bin	-0.3	0
bin	-0.26666666666667	0
bin	-0.23333333333333	0
bin	-0.2	0
bin	-0.16666666666667	0
bin	-0.13333333333333	0
bin	-0.1	0
bin	-0.066666666666667	0
bin	-0.033333333333333	0
bin	0	0
bin	0.033333333333333	0
bin	0.066666666666667	0
bin	0.1	0
bin	0.13333333333333	0
bin	0.16666666666667	0
bin	0.2	0
bin	0.23333333333333	0
bin	0.26666666666667	0
bin	0.3	0
bin	0.33333333333333	0
bin	0.36666666666667	0
bin	0.4	0
bin	0.43333333333333	0
bin	0.46666666666667	0
bin	0.5	0
statistic scenarioPRJP1.node[75].wlan.radio 	bitErrorRate:histogram
field count 0
field mean -nan
field stddev -nan
field sum 0
field sqrsum 0
field min -nan
field max -nan
attr source  bitErrorRate
attr title  "Bit error rate, histogram"
bin	-INF	0
bin	-0.5	0
bin	-0.46666666666667	0
bin	-0.43333333333333	0
bin	-0.4	0
bin	-0.36666666666667	0
bin	-0.33333333333333	0
bin	-0.3	0
bin	-0.26666666666667	0
bin	-0.23333333333333	0
bin	-0.2	0
bin	-0.16666666666667	0
bin	-0.13333333333333	0
bin	-0.1	0
bin	-0.066666666666667	0
bin	-0.033333333333333	0
bin	0	0
bin	0.033333333333333	0
bin	0.066666666666667	0
bin	0.1	0
bin	0.13333333333333	0
bin	0.16666666666667	0
bin	0.2	0
bin	0.23333333333333	0
bin	0.26666666666667	0
bin	0.3	0
bin	0.33333333333333	0
bin	0.36666666666667	0
bin	0.4	0
bin	0.43333333333333	0
bin	0.46666666666667	0
bin	0.5	0
statistic scenarioPRJP1.node[75].wlan.radio 	packetErrorRate:histogram
field count 285101
field mean 0.22255455628034
field stddev 0.40695518712679
field sum 63450.52655008
field sqrsum 61337.334468419
field min 0
field max 1
attr source  packetErrorRate
attr title  "Packet error rate, histogram"
bin	-INF	80385
bin	-7.0943251273548e-12	0
bin	-6.1484151103741e-12	0
bin	-5.2025050933935e-12	0
bin	-4.2565950764129e-12	0
bin	-3.3106850594322e-12	0
bin	-2.3647750424516e-12	0
bin	-1.418865025471e-12	0
bin	-4.7295500849032e-13	163589
bin	4.7295500849032e-13	1473
bin	1.418865025471e-12	657
bin	2.3647750424516e-12	471
bin	3.3106850594322e-12	308
bin	4.2565950764129e-12	260
bin	5.2025050933935e-12	212
bin	6.1484151103741e-12	184
bin	7.0943251273548e-12	176
bin	8.0402351443354e-12	142
bin	8.986145161316e-12	145
bin	9.9320551782967e-12	138
bin	1.0877965195277e-11	126
bin	1.1823875212258e-11	78
bin	1.2769785229239e-11	83
bin	1.3715695246219e-11	89
bin	1.46616052632e-11	85
bin	1.560751528018e-11	82
bin	1.6553425297161e-11	56
bin	1.7499335314142e-11	68
bin	1.8445245331122e-11	59
bin	1.9391155348103e-11	65
bin	2.0337065365084e-11	65
bin	2.1282975382064e-11	36105
statistic scenarioPRJP1.node[75].wlan.radio 	minSNIR:histogram
field count 285101
field mean 2019.1866224228
field stddev 26168.963106981
field sum 575672125.23935
field sqrsum 1.9640304049414e+14
field min 0.00014159544303073
field max 753239.71923443
attr source  minSNIR
attr title  "Min SNIR, histogram"
bin	-INF	0
bin	-1229.0262200048	0
bin	-1064.3549987652	0
bin	-899.68377752564	0
bin	-735.01255628608	0
bin	-570.34133504652	0
bin	-405.67011380697	0
bin	-240.99889256741	0
bin	-76.327671327851	201981
bin	88.343549911706	32808
bin	253.01477115126	10660
bin	417.68599239082	5225
bin	582.35721363038	3742
bin	747.02843486994	2873
bin	911.69965610949	2386
bin	1076.370877349	1869
bin	1241.0420985886	1537
bin	1405.7133198282	1382
bin	1570.3845410677	1018
bin	1735.0557623073	828
bin	1899.7269835468	828
bin	2064.3982047864	696
bin	2229.069426026	662
bin	2393.7406472655	604
bin	2558.4118685051	553
bin	2723.0830897446	487
bin	2887.7543109842	482
bin	3052.4255322237	473
bin	3217.0967534633	418
bin	3381.7679747029	510
bin	3546.4391959424	395
bin	3711.110417182	12684
scalar scenarioPRJP1.node[75].lo0.lo 	droppedPkBitError:count 	0
attr interpolationmode  none
attr source  dropPkBitError
attr title  "packets dropped/bit error, count"
scalar scenarioPRJP1.node[75].lo0.lo 	droppedPkBitError:sum(packetBytes) 	0
attr interpolationmode  none
attr source  dropPkBitError
attr title  "packets dropped/bit error, sum(packetBytes)"
scalar scenarioPRJP1.node[75].lo0.lo 	rcvdPkFromHL:count 	137
attr interpolationmode  none
attr source  packetReceivedFromUpper
attr title  "packets received from higher layer, count"
scalar scenarioPRJP1.node[75].lo0.lo 	rcvdPkFromHL:sum(packetBytes) 	71240
attr interpolationmode  none
attr source  packetReceivedFromUpper
attr title  "packets received from higher layer, sum(packetBytes)"
scalar scenarioPRJP1.node[75].lo0.lo 	passedUpPk:count 	137
attr interpolationmode  none
attr source  packetSentToUpper
attr title  "packets passed to higher layer, count"
scalar scenarioPRJP1.node[75].lo0.lo 	passedUpPk:sum(packetBytes) 	71240
attr interpolationmode  none
attr source  packetSentToUpper
attr title  "packets passed to higher layer, sum(packetBytes)"
scalar scenarioPRJP1.node[94].app 	"Total sent" 	2605
scalar scenarioPRJP1.node[94].app 	"Total received" 	127
scalar scenarioPRJP1.node[94].app 	"Total deleted" 	5
scalar scenarioPRJP1.node[94].app 	dropPk:count 	5
attr interpolationmode  none
attr source  dropPk
attr title  "packets dropped, count"
scalar scenarioPRJP1.node[94].app 	dropPk:sum(packetBytes) 	2560
attr interpolationmode  none
attr source  dropPk
attr title  "packets dropped, sum(packetBytes)"
scalar scenarioPRJP1.node[94].app 	outOfOrderPk:count 	3
attr interpolationmode  none
attr source  outOfOrderPk
attr title  "packets received out of order, count"
scalar scenarioPRJP1.node[94].app 	outOfOrderPk:sum(packetBytes) 	1536
attr interpolationmode  none
attr source  outOfOrderPk
attr title  "packets received out of order, sum(packetBytes)"
scalar scenarioPRJP1.node[94].app 	rcvdPk:count 	127
attr interpolationmode  none
attr source  rcvdPk
attr title  "packets received, count"
scalar scenarioPRJP1.node[94].app 	rcvdPk:sum(packetBytes) 	65024
attr interpolationmode  none
attr source  rcvdPk
attr title  "packets received, sum(packetBytes)"
statistic scenarioPRJP1.node[94].app 	endToEndDelay:histogram
field count 127
field mean 1.2779702723865
field stddev 3.1759712981778
field sum 162.30222459309
field sqrsum 1478.3534227151
field min 0.001050725412
field max 17.77171839599
attr interpolationmode  none
attr source  messageAge(rcvdPk)
attr title  "delay, histogram"
attr unit  s
bin	-INF	0
bin	-8.884283109877	0
bin	-7.6995719318385	0
bin	-6.5148607537999	0
bin	-5.3301495757614	0
bin	-4.1454383977229	0
bin	-2.9607272196843	0
bin	-1.7760160416458	0
bin	-0.59130486360727	91
bin	0.59340631443127	17
bin	1.7781174924698	5
bin	2.9628286705083	4
bin	4.1475398485469	1
bin	5.3322510265854	0
bin	6.5169622046239	2
bin	7.7016733826625	0
bin	8.886384560701	0
bin	10.07109573874	2
bin	11.255806916778	1
bin	12.440518094817	2
bin	13.625229272855	1
bin	14.809940450894	0
bin	15.994651628932	0
bin	17.179362806971	1
bin	18.364073985009	0
bin	19.548785163048	0
bin	20.733496341086	0
bin	21.918207519125	0
bin	23.102918697163	0
bin	24.287629875202	0
bin	25.47234105324	0
bin	26.657052231279	0
scalar scenarioPRJP1.node[94].app 	sentPk:count 	2605
attr interpolationmode  none
attr source  sentPk
attr title  "packets sent, count"
scalar scenarioPRJP1.node[94].app 	sentPk:sum(packetBytes) 	1333760
attr interpolationmode  none
attr source  sentPk
attr title  "packets sent, sum(packetBytes)"
scalar scenarioPRJP1.node[94].udp 	droppedPkBadChecksum:count 	0
attr interpolationmode  none
attr title  "packets dropped (checksum error), count"
scalar scenarioPRJP1.node[94].udp 	droppedPkWrongPort:count 	0
attr interpolationmode  none
attr title  "packets dropped (wrong port), count"
scalar scenarioPRJP1.node[94].udp 	passedUpPk:count 	135
attr interpolationmode  none
attr title  "packets passed up, count"
scalar scenarioPRJP1.node[94].udp 	rcvdPk:count 	135
attr interpolationmode  none
attr source  rcvdPk
attr title  "packets received, count"
scalar scenarioPRJP1.node[94].udp 	rcvdPk:sum(packetBytes) 	70200
attr interpolationmode  none
attr source  rcvdPk
attr title  "packets received, sum(packetBytes)"
scalar scenarioPRJP1.node[94].udp 	sentPk:count 	2605
attr interpolationmode  none
attr source  sentPk
attr title  "packets sent, count"
scalar scenarioPRJP1.node[94].udp 	sentPk:sum(packetBytes) 	1354600
attr interpolationmode  none
attr source  sentPk
attr title  "packets sent, sum(packetBytes)"
scalar scenarioPRJP1.node[94].networkLayer.arp 	failedARPResolution:count 	79
attr title  "ARP failed resolutions, count"
scalar scenarioPRJP1.node[94].networkLayer.arp 	completedARPResolution:count 	1858
attr title  "ARP completed resolutions, count"
scalar scenarioPRJP1.node[94].networkLayer.arp 	initiatedARPResolution:count 	173
attr title  "ARP initiated resolutions, count"
scalar scenarioPRJP1.node[94].networkLayer.arp 	sentReply:count 	52
attr title  "ARP replies sent, count"
scalar scenarioPRJP1.node[94].networkLayer.arp 	sentReq:count 	367
attr title  "ARP request sent, count"
scalar scenarioPRJP1.node[94].mobility 	startTime 	9.7
scalar scenarioPRJP1.node[94].mobility 	totalTime 	940.3
scalar scenarioPRJP1.node[94].mobility 	stopTime 	950
scalar scenarioPRJP1.node[94].mobility 	minSpeed 	2.4754358953641e-13
scalar scenarioPRJP1.node[94].mobility 	maxSpeed 	18.700377960773
scalar scenarioPRJP1.node[94].mobility 	totalDistance 	8846.5368948779
scalar scenarioPRJP1.node[94].mobility 	totalCO2Emission 	2570.8641813135
scalar scenarioPRJP1.node[94].wlan.mgmt 	dataQueueLen:max 	21
attr interpolationmode  sample-hold
attr title  "data queue length, max"
scalar scenarioPRJP1.node[94].wlan.mgmt 	dataQueueLen:timeavg 	0.0016647745156556
attr interpolationmode  sample-hold
attr title  "data queue length, timeavg"
scalar scenarioPRJP1.node[94].wlan.mgmt 	dropPkByQueue:count 	0
attr interpolationmode  none
attr source  dropPkByQueue
attr title  "packets dropped by queue, count"
scalar scenarioPRJP1.node[94].wlan.mgmt 	dropPkByQueue:sum(packetBytes) 	0
attr interpolationmode  none
attr source  dropPkByQueue
attr title  "packets dropped by queue, sum(packetBytes)"
scalar scenarioPRJP1.node[94].wlan.mac 	"number of received packets" 	9563
scalar scenarioPRJP1.node[94].wlan.mac 	"number of collisions" 	68411
scalar scenarioPRJP1.node[94].wlan.mac 	"number of internal collisions" 	0
scalar scenarioPRJP1.node[94].wlan.mac 	"number of retry for AC 0" 	24147
scalar scenarioPRJP1.node[94].wlan.mac 	"number of retry for AC 1" 	0
scalar scenarioPRJP1.node[94].wlan.mac 	"number of retry for AC 2" 	0
scalar scenarioPRJP1.node[94].wlan.mac 	"number of retry for AC 3" 	0
scalar scenarioPRJP1.node[94].wlan.mac 	"sent and received bits" 	17640736
scalar scenarioPRJP1.node[94].wlan.mac 	"sent packet within AC 0" 	3936
scalar scenarioPRJP1.node[94].wlan.mac 	"sent packet within AC 1" 	0
scalar scenarioPRJP1.node[94].wlan.mac 	"sent packet within AC 2" 	0
scalar scenarioPRJP1.node[94].wlan.mac 	"sent packet within AC 3" 	0
scalar scenarioPRJP1.node[94].wlan.mac 	"sent in TXOP " 	0
scalar scenarioPRJP1.node[94].wlan.mac 	"sentWithoutRetry AC 0" 	3423
scalar scenarioPRJP1.node[94].wlan.mac 	"sentWithoutRetry AC 1" 	0
scalar scenarioPRJP1.node[94].wlan.mac 	"sentWithoutRetry AC 2" 	0
scalar scenarioPRJP1.node[94].wlan.mac 	"sentWithoutRetry AC 3" 	0
scalar scenarioPRJP1.node[94].wlan.mac 	"numGivenUp AC 0" 	3829
scalar scenarioPRJP1.node[94].wlan.mac 	"numGivenUp AC 1" 	0
scalar scenarioPRJP1.node[94].wlan.mac 	"numGivenUp AC 2" 	0
scalar scenarioPRJP1.node[94].wlan.mac 	"numGivenUp AC 3" 	0
scalar scenarioPRJP1.node[94].wlan.mac 	"numDropped AC 0" 	27
scalar scenarioPRJP1.node[94].wlan.mac 	"numDropped AC 1" 	0
scalar scenarioPRJP1.node[94].wlan.mac 	"numDropped AC 2" 	0
scalar scenarioPRJP1.node[94].wlan.mac 	"numDropped AC 3" 	0
scalar scenarioPRJP1.node[94].wlan.mac 	rcvdPkFromLL:count 	297158
attr interpolationmode  none
attr source  packetReceivedFromLower
attr title  "packets received from lower layer, count"
scalar scenarioPRJP1.node[94].wlan.mac 	rcvdPkFromLL:sum(packetBytes) 	80337080
attr interpolationmode  none
attr source  packetReceivedFromLower
attr title  "packets received from lower layer, sum(packetBytes)"
scalar scenarioPRJP1.node[94].wlan.mac 	sentDownPk:count 	52775
attr interpolationmode  none
attr source  packetSentToLower
attr title  "packets sent to lower layer, count"
scalar scenarioPRJP1.node[94].wlan.mac 	sentDownPk:sum(packetBytes) 	13237038
attr interpolationmode  none
attr source  packetSentToLower
attr title  "packets sent to lower layer, sum(packetBytes)"
scalar scenarioPRJP1.node[94].wlan.mac 	rcvdPkFromHL:count 	19092
attr interpolationmode  none
attr source  packetReceivedFromUpper
attr title  "packets received from higher layer, count"
scalar scenarioPRJP1.node[94].wlan.mac 	rcvdPkFromHL:sum(packetBytes) 	3687700
attr interpolationmode  none
attr source  packetReceivedFromUpper
attr title  "packets received from higher layer, sum(packetBytes)"
scalar scenarioPRJP1.node[94].wlan.mac 	passedUpPk:count 	45045
attr interpolationmode  none
attr source  packetSentToUpper
attr title  "packets passed to higher layer, count"
scalar scenarioPRJP1.node[94].wlan.mac 	passedUpPk:sum(packetBytes) 	4382740
attr interpolationmode  none
attr source  packetSentToUpper
attr title  "packets passed to higher layer, sum(packetBytes)"
statistic scenarioPRJP1.node[94].wlan.radio 	radioChannel:histogram
field count 1
field mean 3
field stddev -nan
field sum 3
field sqrsum 9
field min 3
field max 3
attr interpolationmode  sample-hold
attr source  radioChannelChanged
attr title  "Radio channel, histogram"
bin	-INF	0
bin	2	0
bin	3	1
bin	4	0
scalar scenarioPRJP1.node[94].wlan.radio 	transmissionState:count 	211100
attr interpolationmode  sample-hold
attr source  transmissionStateChanged
attr title  "Radio transmission state, count"
scalar scenarioPRJP1.node[94].wlan.radio 	receptionState:count 	720275
attr interpolationmode  sample-hold
attr source  receptionStateChanged
attr title  "Radio reception state, count"
scalar scenarioPRJP1.node[94].wlan.radio 	radioMode:count 	105552
attr interpolationmode  sample-hold
attr source  radioModeChanged
attr title  "Radio mode, count"
statistic scenarioPRJP1.node[94].wlan.radio 	symbolErrorRate:histogram
field count 0
field mean -nan
field stddev -nan
field sum 0
field sqrsum 0
field min -nan
field max -nan
attr source  symbolErrorRate
attr title  "Symbol error rate, histogram"
bin	-INF	0
bin	-0.5	0
bin	-0.46666666666667	0
bin	-0.43333333333333	0
bin	-0.4	0
bin	-0.36666666666667	0
bin	-0.33333333333333	0
bin	-0.3	0
bin	-0.26666666666667	0
bin	-0.23333333333333	0
bin	-0.2	0
bin	-0.16666666666667	0
bin	-0.13333333333333	0
bin	-0.1	0
bin	-0.066666666666667	0
bin	-0.033333333333333	0
bin	0	0
bin	0.033333333333333	0
bin	0.066666666666667	0
bin	0.1	0
bin	0.13333333333333	0
bin	0.16666666666667	0
bin	0.2	0
bin	0.23333333333333	0
bin	0.26666666666667	0
bin	0.3	0
bin	0.33333333333333	0
bin	0.36666666666667	0
bin	0.4	0
bin	0.43333333333333	0
bin	0.46666666666667	0
bin	0.5	0
statistic scenarioPRJP1.node[94].wlan.radio 	bitErrorRate:histogram
field count 0
field mean -nan
field stddev -nan
field sum 0
field sqrsum 0
field min -nan
field max -nan
attr source  bitErrorRate
attr title  "Bit error rate, histogram"
bin	-INF	0
bin	-0.5	0
bin	-0.46666666666667	0
bin	-0.43333333333333	0
bin	-0.4	0
bin	-0.36666666666667	0
bin	-0.33333333333333	0
bin	-0.3	0
bin	-0.26666666666667	0
bin	-0.23333333333333	0
bin	-0.2	0
bin	-0.16666666666667	0
bin	-0.13333333333333	0
bin	-0.1	0
bin	-0.066666666666667	0
bin	-0.033333333333333	0
bin	0	0
bin	0.033333333333333	0
bin	0.066666666666667	0
bin	0.1	0
bin	0.13333333333333	0
bin	0.16666666666667	0
bin	0.2	0
bin	0.23333333333333	0
bin	0.26666666666667	0
bin	0.3	0
bin	0.33333333333333	0
bin	0.36666666666667	0
bin	0.4	0
bin	0.43333333333333	0
bin	0.46666666666667	0
bin	0.5	0
statistic scenarioPRJP1.node[94].wlan.radio 	packetErrorRate:histogram
field count 297158
field mean 0.21481704965167
field stddev 0.40140895422308
field sum 63834.604840392
field sqrsum 61593.415867362
field min 0
field max 1
attr source  packetErrorRate
attr title  "Packet error rate, histogram"
bin	-INF	0
bin	-8.4514638560185e-05	0
bin	-7.3246020085493e-05	0
bin	-6.1977401610802e-05	0
bin	-5.0708783136111e-05	0
bin	-3.944016466142e-05	0
bin	-2.8171546186728e-05	0
bin	-1.6902927712037e-05	0
bin	-5.6343092373456e-06	198781
bin	5.6343092373456e-06	2684
bin	1.6902927712037e-05	1392
bin	2.8171546186728e-05	930
bin	3.944016466142e-05	684
bin	5.0708783136111e-05	515
bin	6.1977401610802e-05	456
bin	7.3246020085493e-05	395
bin	8.4514638560185e-05	348
bin	9.5783257034876e-05	292
bin	0.00010705187550957	289
bin	0.00011832049398426	241
bin	0.00012958911245895	259
bin	0.00014085773093364	198
bin	0.00015212634940833	192
bin	0.00016339496788302	176
bin	0.00017466358635772	196
bin	0.00018593220483241	163
bin	0.0001972008233071	162
bin	0.00020846944178179	157
bin	0.00021973806025648	137
bin	0.00023100667873117	152
bin	0.00024227529720586	139
bin	0.00025354391568055	88220
statistic scenarioPRJP1.node[94].wlan.radio 	minSNIR:histogram
field count 297158
field mean 3236.5543814598
field stddev 33938.058355915
field sum 961768026.88584
field sqrsum 3.4537581191069e+14
field min 0.00016926227166138
field max 900865.2265016
attr source  minSNIR
attr title  "Min SNIR, histogram"
bin	-INF	0
bin	-1076.7705983892	0
bin	-932.79309302918	0
bin	-788.81558766917	0
bin	-644.83808230917	0
bin	-500.86057694917	0
bin	-356.88307158916	0
bin	-212.90556622916	0
bin	-68.928060869153	201151
bin	75.049444490852	33246
bin	219.02694985086	12692
bin	363.00445521086	6486
bin	506.98196057086	4606
bin	650.95946593087	3419
bin	794.93697129087	2704
bin	938.91447665088	2043
bin	1082.8919820109	1629
bin	1226.8694873709	1375
bin	1370.8469927309	1224
bin	1514.8244980909	996
bin	1658.8020034509	934
bin	1802.7795088109	765
bin	1946.7570141709	746
bin	2090.7345195309	722
bin	2234.7120248909	689
bin	2378.6895302509	636
bin	2522.6670356109	623
bin	2666.6445409709	591
bin	2810.6220463309	553
bin	2954.5995516909	555
bin	3098.5770570509	488
bin	3242.5545624109	18285
scalar scenarioPRJP1.node[94].lo0.lo 	droppedPkBitError:count 	0
attr interpolationmode  none
attr source  dropPkBitError
attr title  "packets dropped/bit error, count"
scalar scenarioPRJP1.node[94].lo0.lo 	droppedPkBitError:sum(packetBytes) 	0
attr interpolationmode  none
attr source  dropPkBitError
attr title  "packets dropped/bit error, sum(packetBytes)"
scalar scenarioPRJP1.node[94].lo0.lo 	rcvdPkFromHL:count 	135
attr interpolationmode  none
attr source  packetReceivedFromUpper
attr title  "packets received from higher layer, count"
scalar scenarioPRJP1.node[94].lo0.lo 	rcvdPkFromHL:sum(packetBytes) 	70200
attr interpolationmode  none
attr source  packetReceivedFromUpper
attr title  "packets received from higher layer, sum(packetBytes)"
scalar scenarioPRJP1.node[94].lo0.lo 	passedUpPk:count 	135
attr interpolationmode  none
attr source  packetSentToUpper
attr title  "packets passed to higher layer, count"
scalar scenarioPRJP1.node[94].lo0.lo 	passedUpPk:sum(packetBytes) 	70200
attr interpolationmode  none
attr source  packetSentToUpper
attr title  "packets passed to higher layer, sum(packetBytes)"
