version 2
run DYMOUM-FS-25n-12-20150721-22:36:08-18919
attr configname DYMOUM-FS-25n
attr datetime 20150721-22:36:08
attr experiment DYMOUM-FS-25n
attr inifile omnetpp.ini
attr iterationvars ""
attr iterationvars2 $repetition=12
attr measurement ""
attr network Prj_Part1_propag.scenarioPRJP1
attr processid 18919
attr repetition 12
attr replication #12
attr resultdir results
attr runnumber 12
attr seedset 12

scalar scenarioPRJP1.radioMedium.propagation 	"Arrival computation count" 	7864861
scalar scenarioPRJP1.radioMedium 	"transmission count" 	327716
scalar scenarioPRJP1.radioMedium 	"radio frame send count" 	7864861
scalar scenarioPRJP1.radioMedium 	"reception computation count" 	7817202
scalar scenarioPRJP1.radioMedium 	"interference computation count" 	22455601
scalar scenarioPRJP1.radioMedium 	"reception decision computation count" 	783715
scalar scenarioPRJP1.radioMedium 	"listening decision computation count" 	14019904
scalar scenarioPRJP1.radioMedium 	"reception cache hit" 	79.049698849548
attr unit  %
scalar scenarioPRJP1.radioMedium 	"interference cache hit" 	50
attr unit  %
scalar scenarioPRJP1.radioMedium 	"noise cache hit" 	0
attr unit  %
scalar scenarioPRJP1.radioMedium 	"snir cache hit" 	0
attr unit  %
scalar scenarioPRJP1.radioMedium 	"reception decision cache hit" 	0
attr unit  %
scalar scenarioPRJP1.node[0].app 	"Total sent" 	2606
scalar scenarioPRJP1.node[0].app 	"Total received" 	325
scalar scenarioPRJP1.node[0].app 	"Total deleted" 	57
scalar scenarioPRJP1.node[0].app 	dropPk:count 	57
attr interpolationmode  none
attr source  dropPk
attr title  "packets dropped, count"
scalar scenarioPRJP1.node[0].app 	dropPk:sum(packetBytes) 	29184
attr interpolationmode  none
attr source  dropPk
attr title  "packets dropped, sum(packetBytes)"
scalar scenarioPRJP1.node[0].app 	outOfOrderPk:count 	1
attr interpolationmode  none
attr source  outOfOrderPk
attr title  "packets received out of order, count"
scalar scenarioPRJP1.node[0].app 	outOfOrderPk:sum(packetBytes) 	512
attr interpolationmode  none
attr source  outOfOrderPk
attr title  "packets received out of order, sum(packetBytes)"
scalar scenarioPRJP1.node[0].app 	rcvdPk:count 	325
attr interpolationmode  none
attr source  rcvdPk
attr title  "packets received, count"
scalar scenarioPRJP1.node[0].app 	rcvdPk:sum(packetBytes) 	166400
attr interpolationmode  none
attr source  rcvdPk
attr title  "packets received, sum(packetBytes)"
statistic scenarioPRJP1.node[0].app 	endToEndDelay:histogram
field count 325
field mean 4.1218056199492
field stddev 5.8545563465523
field sum 1339.5868264835
field sqrsum 16626.885434655
field min 0.000945022685
field max 19.900584949663
attr interpolationmode  none
attr source  messageAge(rcvdPk)
attr title  "delay, histogram"
attr unit  s
bin	-INF	0
bin	-9.9372030313445	0
bin	-8.6121166084796	0
bin	-7.2870301856148	0
bin	-5.9619437627499	0
bin	-4.636857339885	0
bin	-3.3117709170202	0
bin	-1.9866844941553	0
bin	-0.66159807129043	173
bin	0.66348835157443	15
bin	1.9885747744393	16
bin	3.3136611973042	17
bin	4.638747620169	14
bin	5.9638340430339	14
bin	7.2889204658988	10
bin	8.6140068887636	8
bin	9.9390933116285	4
bin	11.264179734493	7
bin	12.589266157358	7
bin	13.914352580223	13
bin	15.239439003088	5
bin	16.564525425953	13
bin	17.889611848818	5
bin	19.214698271683	4
bin	20.539784694547	0
bin	21.864871117412	0
bin	23.189957540277	0
bin	24.515043963142	0
bin	25.840130386007	0
bin	27.165216808872	0
bin	28.490303231737	0
bin	29.815389654601	0
scalar scenarioPRJP1.node[0].app 	sentPk:count 	2606
attr interpolationmode  none
attr source  sentPk
attr title  "packets sent, count"
scalar scenarioPRJP1.node[0].app 	sentPk:sum(packetBytes) 	1334272
attr interpolationmode  none
attr source  sentPk
attr title  "packets sent, sum(packetBytes)"
scalar scenarioPRJP1.node[0].udp 	droppedPkBadChecksum:count 	0
attr interpolationmode  none
attr title  "packets dropped (checksum error), count"
scalar scenarioPRJP1.node[0].udp 	droppedPkWrongPort:count 	0
attr interpolationmode  none
attr title  "packets dropped (wrong port), count"
scalar scenarioPRJP1.node[0].udp 	passedUpPk:count 	383
attr interpolationmode  none
attr title  "packets passed up, count"
scalar scenarioPRJP1.node[0].udp 	rcvdPk:count 	383
attr interpolationmode  none
attr source  rcvdPk
attr title  "packets received, count"
scalar scenarioPRJP1.node[0].udp 	rcvdPk:sum(packetBytes) 	199160
attr interpolationmode  none
attr source  rcvdPk
attr title  "packets received, sum(packetBytes)"
scalar scenarioPRJP1.node[0].udp 	sentPk:count 	2606
attr interpolationmode  none
attr source  sentPk
attr title  "packets sent, count"
scalar scenarioPRJP1.node[0].udp 	sentPk:sum(packetBytes) 	1355120
attr interpolationmode  none
attr source  sentPk
attr title  "packets sent, sum(packetBytes)"
scalar scenarioPRJP1.node[0].networkLayer.arp 	failedARPResolution:count 	0
attr title  "ARP failed resolutions, count"
scalar scenarioPRJP1.node[0].networkLayer.arp 	completedARPResolution:count 	70
attr title  "ARP completed resolutions, count"
scalar scenarioPRJP1.node[0].networkLayer.arp 	initiatedARPResolution:count 	21
attr title  "ARP initiated resolutions, count"
scalar scenarioPRJP1.node[0].networkLayer.arp 	sentReply:count 	18
attr title  "ARP replies sent, count"
scalar scenarioPRJP1.node[0].networkLayer.arp 	sentReq:count 	22
attr title  "ARP request sent, count"
scalar scenarioPRJP1.node[0].manetrouting 	"simulated time" 	950
scalar scenarioPRJP1.node[0].manetrouting 	"Dymo totalSend " 	252434
scalar scenarioPRJP1.node[0].manetrouting 	"Dymo Rreq send" 	113867
scalar scenarioPRJP1.node[0].manetrouting 	"Dymo Rreq rec" 	67616
scalar scenarioPRJP1.node[0].manetrouting 	"Dymo Rrep send" 	436
scalar scenarioPRJP1.node[0].manetrouting 	"Dymo Rrep rec" 	400
scalar scenarioPRJP1.node[0].manetrouting 	"Dymo Rerr send" 	133
scalar scenarioPRJP1.node[0].manetrouting 	"Dymo Rerr rec" 	386
scalar scenarioPRJP1.node[0].mobility 	startTime 	0.1
scalar scenarioPRJP1.node[0].mobility 	totalTime 	949.9
scalar scenarioPRJP1.node[0].mobility 	stopTime 	950
scalar scenarioPRJP1.node[0].mobility 	minSpeed 	2.4761018376003e-13
scalar scenarioPRJP1.node[0].mobility 	maxSpeed 	17.074014072039
scalar scenarioPRJP1.node[0].mobility 	totalDistance 	10696.154965143
scalar scenarioPRJP1.node[0].mobility 	totalCO2Emission 	2592.1636849007
scalar scenarioPRJP1.node[0].wlan.mgmt 	dataQueueLen:max 	19
attr interpolationmode  sample-hold
attr title  "data queue length, max"
scalar scenarioPRJP1.node[0].wlan.mgmt 	dataQueueLen:timeavg 	0
attr interpolationmode  sample-hold
attr title  "data queue length, timeavg"
scalar scenarioPRJP1.node[0].wlan.mgmt 	dropPkByQueue:count 	0
attr interpolationmode  none
attr source  dropPkByQueue
attr title  "packets dropped by queue, count"
scalar scenarioPRJP1.node[0].wlan.mgmt 	dropPkByQueue:sum(packetBytes) 	0
attr interpolationmode  none
attr source  dropPkByQueue
attr title  "packets dropped by queue, sum(packetBytes)"
scalar scenarioPRJP1.node[0].wlan.mac 	"number of received packets" 	2504
scalar scenarioPRJP1.node[0].wlan.mac 	"number of collisions" 	1926
scalar scenarioPRJP1.node[0].wlan.mac 	"number of internal collisions" 	0
scalar scenarioPRJP1.node[0].wlan.mac 	"number of retry for AC 0" 	2675
scalar scenarioPRJP1.node[0].wlan.mac 	"number of retry for AC 1" 	0
scalar scenarioPRJP1.node[0].wlan.mac 	"number of retry for AC 2" 	0
scalar scenarioPRJP1.node[0].wlan.mac 	"number of retry for AC 3" 	0
scalar scenarioPRJP1.node[0].wlan.mac 	"sent and received bits" 	5561184
scalar scenarioPRJP1.node[0].wlan.mac 	"sent packet within AC 0" 	288
scalar scenarioPRJP1.node[0].wlan.mac 	"sent packet within AC 1" 	0
scalar scenarioPRJP1.node[0].wlan.mac 	"sent packet within AC 2" 	0
scalar scenarioPRJP1.node[0].wlan.mac 	"sent packet within AC 3" 	0
scalar scenarioPRJP1.node[0].wlan.mac 	"sent in TXOP " 	0
scalar scenarioPRJP1.node[0].wlan.mac 	"sentWithoutRetry AC 0" 	255
scalar scenarioPRJP1.node[0].wlan.mac 	"sentWithoutRetry AC 1" 	0
scalar scenarioPRJP1.node[0].wlan.mac 	"sentWithoutRetry AC 2" 	0
scalar scenarioPRJP1.node[0].wlan.mac 	"sentWithoutRetry AC 3" 	0
scalar scenarioPRJP1.node[0].wlan.mac 	"numGivenUp AC 0" 	435
scalar scenarioPRJP1.node[0].wlan.mac 	"numGivenUp AC 1" 	0
scalar scenarioPRJP1.node[0].wlan.mac 	"numGivenUp AC 2" 	0
scalar scenarioPRJP1.node[0].wlan.mac 	"numGivenUp AC 3" 	0
scalar scenarioPRJP1.node[0].wlan.mac 	"numDropped AC 0" 	0
scalar scenarioPRJP1.node[0].wlan.mac 	"numDropped AC 1" 	0
scalar scenarioPRJP1.node[0].wlan.mac 	"numDropped AC 2" 	0
scalar scenarioPRJP1.node[0].wlan.mac 	"numDropped AC 3" 	0
scalar scenarioPRJP1.node[0].wlan.mac 	rcvdPkFromLL:count 	28017
attr interpolationmode  none
attr source  packetReceivedFromLower
attr title  "packets received from lower layer, count"
scalar scenarioPRJP1.node[0].wlan.mac 	rcvdPkFromLL:sum(packetBytes) 	7443952
attr interpolationmode  none
attr source  packetReceivedFromLower
attr title  "packets received from lower layer, sum(packetBytes)"
scalar scenarioPRJP1.node[0].wlan.mac 	sentDownPk:count 	10797
attr interpolationmode  none
attr source  packetSentToLower
attr title  "packets sent to lower layer, count"
scalar scenarioPRJP1.node[0].wlan.mac 	sentDownPk:sum(packetBytes) 	2433532
attr interpolationmode  none
attr source  packetSentToLower
attr title  "packets sent to lower layer, sum(packetBytes)"
scalar scenarioPRJP1.node[0].wlan.mac 	rcvdPkFromHL:count 	5618
attr interpolationmode  none
attr source  packetReceivedFromUpper
attr title  "packets received from higher layer, count"
scalar scenarioPRJP1.node[0].wlan.mac 	rcvdPkFromHL:sum(packetBytes) 	933132
attr interpolationmode  none
attr source  packetReceivedFromUpper
attr title  "packets received from higher layer, sum(packetBytes)"
scalar scenarioPRJP1.node[0].wlan.mac 	passedUpPk:count 	9293
attr interpolationmode  none
attr source  packetSentToUpper
attr title  "packets passed to higher layer, count"
scalar scenarioPRJP1.node[0].wlan.mac 	passedUpPk:sum(packetBytes) 	1345206
attr interpolationmode  none
attr source  packetSentToUpper
attr title  "packets passed to higher layer, sum(packetBytes)"
statistic scenarioPRJP1.node[0].wlan.radio 	radioChannel:histogram
field count 1
field mean 3
field stddev -nan
field sum 3
field sqrsum 9
field min 3
field max 3
attr interpolationmode  sample-hold
attr source  radioChannelChanged
attr title  "Radio channel, histogram"
bin	-INF	0
bin	2	0
bin	3	1
bin	4	0
scalar scenarioPRJP1.node[0].wlan.radio 	transmissionState:count 	43188
attr interpolationmode  sample-hold
attr source  transmissionStateChanged
attr title  "Radio transmission state, count"
scalar scenarioPRJP1.node[0].wlan.radio 	receptionState:count 	77927
attr interpolationmode  sample-hold
attr source  receptionStateChanged
attr title  "Radio reception state, count"
scalar scenarioPRJP1.node[0].wlan.radio 	radioMode:count 	21596
attr interpolationmode  sample-hold
attr source  radioModeChanged
attr title  "Radio mode, count"
statistic scenarioPRJP1.node[0].wlan.radio 	symbolErrorRate:histogram
field count 0
field mean -nan
field stddev -nan
field sum 0
field sqrsum 0
field min -nan
field max -nan
attr source  symbolErrorRate
attr title  "Symbol error rate, histogram"
bin	-INF	0
bin	-0.5	0
bin	-0.46666666666667	0
bin	-0.43333333333333	0
bin	-0.4	0
bin	-0.36666666666667	0
bin	-0.33333333333333	0
bin	-0.3	0
bin	-0.26666666666667	0
bin	-0.23333333333333	0
bin	-0.2	0
bin	-0.16666666666667	0
bin	-0.13333333333333	0
bin	-0.1	0
bin	-0.066666666666667	0
bin	-0.033333333333333	0
bin	0	0
bin	0.033333333333333	0
bin	0.066666666666667	0
bin	0.1	0
bin	0.13333333333333	0
bin	0.16666666666667	0
bin	0.2	0
bin	0.23333333333333	0
bin	0.26666666666667	0
bin	0.3	0
bin	0.33333333333333	0
bin	0.36666666666667	0
bin	0.4	0
bin	0.43333333333333	0
bin	0.46666666666667	0
bin	0.5	0
statistic scenarioPRJP1.node[0].wlan.radio 	bitErrorRate:histogram
field count 0
field mean -nan
field stddev -nan
field sum 0
field sqrsum 0
field min -nan
field max -nan
attr source  bitErrorRate
attr title  "Bit error rate, histogram"
bin	-INF	0
bin	-0.5	0
bin	-0.46666666666667	0
bin	-0.43333333333333	0
bin	-0.4	0
bin	-0.36666666666667	0
bin	-0.33333333333333	0
bin	-0.3	0
bin	-0.26666666666667	0
bin	-0.23333333333333	0
bin	-0.2	0
bin	-0.16666666666667	0
bin	-0.13333333333333	0
bin	-0.1	0
bin	-0.066666666666667	0
bin	-0.033333333333333	0
bin	0	0
bin	0.033333333333333	0
bin	0.066666666666667	0
bin	0.1	0
bin	0.13333333333333	0
bin	0.16666666666667	0
bin	0.2	0
bin	0.23333333333333	0
bin	0.26666666666667	0
bin	0.3	0
bin	0.33333333333333	0
bin	0.36666666666667	0
bin	0.4	0
bin	0.43333333333333	0
bin	0.46666666666667	0
bin	0.5	0
statistic scenarioPRJP1.node[0].wlan.radio 	packetErrorRate:histogram
field count 28017
field mean 0.062709639364699
field stddev 0.23560388231377
field sum 1756.9359660808
field sqrsum 1665.3222699666
field min 0
field max 1
attr source  packetErrorRate
attr title  "Packet error rate, histogram"
bin	-INF	0
bin	-0.5	0
bin	-0.43333333333333	0
bin	-0.36666666666667	0
bin	-0.3	0
bin	-0.23333333333333	0
bin	-0.16666666666667	0
bin	-0.1	0
bin	-0.033333333333333	25902
bin	0.033333333333333	140
bin	0.1	72
bin	0.16666666666667	38
bin	0.23333333333333	41
bin	0.3	37
bin	0.36666666666667	23
bin	0.43333333333333	35
bin	0.5	31
bin	0.56666666666667	22
bin	0.63333333333333	24
bin	0.7	23
bin	0.76666666666667	21
bin	0.83333333333333	27
bin	0.9	64
bin	0.96666666666667	1517
bin	1.0333333333333	0
bin	1.1	0
bin	1.1666666666667	0
bin	1.2333333333333	0
bin	1.3	0
bin	1.3666666666667	0
bin	1.4333333333333	0
bin	1.5	0
statistic scenarioPRJP1.node[0].wlan.radio 	minSNIR:histogram
field count 28017
field mean 10732.553168659
field stddev 62805.541932557
field sum 300693942.12632
field sqrsum 1.1373733702731e+14
field min 0.00022733871917808
field max 753239.71923443
attr source  minSNIR
attr title  "Min SNIR, histogram"
bin	-INF	0
bin	-16310.435542803	0
bin	-14135.330241658	0
bin	-11960.224940514	0
bin	-9785.1196393691	0
bin	-7610.0143382244	0
bin	-5434.9090370798	0
bin	-3259.8037359351	0
bin	-1084.6984347904	23358
bin	1090.4068663542	1383
bin	3265.5121674989	329
bin	5440.6174686435	269
bin	7615.7227697882	189
bin	9790.8280709329	180
bin	11965.933372078	393
bin	14141.038673222	373
bin	16316.143974367	102
bin	18491.249275512	51
bin	20666.354576656	27
bin	22841.459877801	52
bin	25016.565178945	27
bin	27191.67048009	53
bin	29366.775781235	24
bin	31541.881082379	38
bin	33716.986383524	30
bin	35892.091684669	17
bin	38067.196985813	21
bin	40242.302286958	20
bin	42417.407588103	7
bin	44592.512889247	15
bin	46767.618190392	15
bin	48942.723491537	1044
scalar scenarioPRJP1.node[0].lo0.lo 	droppedPkBitError:count 	0
attr interpolationmode  none
attr source  dropPkBitError
attr title  "packets dropped/bit error, count"
scalar scenarioPRJP1.node[0].lo0.lo 	droppedPkBitError:sum(packetBytes) 	0
attr interpolationmode  none
attr source  dropPkBitError
attr title  "packets dropped/bit error, sum(packetBytes)"
scalar scenarioPRJP1.node[0].lo0.lo 	rcvdPkFromHL:count 	0
attr interpolationmode  none
attr source  packetReceivedFromUpper
attr title  "packets received from higher layer, count"
scalar scenarioPRJP1.node[0].lo0.lo 	rcvdPkFromHL:sum(packetBytes) 	0
attr interpolationmode  none
attr source  packetReceivedFromUpper
attr title  "packets received from higher layer, sum(packetBytes)"
scalar scenarioPRJP1.node[0].lo0.lo 	passedUpPk:count 	0
attr interpolationmode  none
attr source  packetSentToUpper
attr title  "packets passed to higher layer, count"
scalar scenarioPRJP1.node[0].lo0.lo 	passedUpPk:sum(packetBytes) 	0
attr interpolationmode  none
attr source  packetSentToUpper
attr title  "packets passed to higher layer, sum(packetBytes)"
scalar scenarioPRJP1.node[13].app 	"Total sent" 	2599
scalar scenarioPRJP1.node[13].app 	"Total received" 	362
scalar scenarioPRJP1.node[13].app 	"Total deleted" 	68
scalar scenarioPRJP1.node[13].app 	dropPk:count 	68
attr interpolationmode  none
attr source  dropPk
attr title  "packets dropped, count"
scalar scenarioPRJP1.node[13].app 	dropPk:sum(packetBytes) 	34816
attr interpolationmode  none
attr source  dropPk
attr title  "packets dropped, sum(packetBytes)"
scalar scenarioPRJP1.node[13].app 	outOfOrderPk:count 	0
attr interpolationmode  none
attr source  outOfOrderPk
attr title  "packets received out of order, count"
scalar scenarioPRJP1.node[13].app 	outOfOrderPk:sum(packetBytes) 	0
attr interpolationmode  none
attr source  outOfOrderPk
attr title  "packets received out of order, sum(packetBytes)"
scalar scenarioPRJP1.node[13].app 	rcvdPk:count 	362
attr interpolationmode  none
attr source  rcvdPk
attr title  "packets received, count"
scalar scenarioPRJP1.node[13].app 	rcvdPk:sum(packetBytes) 	185344
attr interpolationmode  none
attr source  rcvdPk
attr title  "packets received, sum(packetBytes)"
statistic scenarioPRJP1.node[13].app 	endToEndDelay:histogram
field count 362
field mean 4.9077329997603
field stddev 5.7744484701025
field sum 1776.5993459132
field sqrsum 20756.351340618
field min 0.000945165892
field max 19.797990805209
attr interpolationmode  none
attr source  messageAge(rcvdPk)
attr title  "delay, histogram"
attr unit  s
bin	-INF	0
bin	-9.7689336109005	0
bin	-8.4662830771316	0
bin	-7.1636325433628	0
bin	-5.8609820095939	0
bin	-4.558331475825	0
bin	-3.2556809420562	0
bin	-1.9530304082873	0
bin	-0.65037987451844	159
bin	0.65227065925043	17
bin	1.9549211930193	16
bin	3.2575717267882	17
bin	4.560222260557	22
bin	5.8628727943259	22
bin	7.1655233280948	15
bin	8.4681738618636	11
bin	9.7708243956325	15
bin	11.073474929401	15
bin	12.37612546317	7
bin	13.678775996939	19
bin	14.981426530708	6
bin	16.284077064477	8
bin	17.586727598246	9
bin	18.889378132015	4
bin	20.192028665783	0
bin	21.494679199552	0
bin	22.797329733321	0
bin	24.09998026709	0
bin	25.402630800859	0
bin	26.705281334628	0
bin	28.007931868397	0
bin	29.310582402165	0
scalar scenarioPRJP1.node[13].app 	sentPk:count 	2599
attr interpolationmode  none
attr source  sentPk
attr title  "packets sent, count"
scalar scenarioPRJP1.node[13].app 	sentPk:sum(packetBytes) 	1330688
attr interpolationmode  none
attr source  sentPk
attr title  "packets sent, sum(packetBytes)"
scalar scenarioPRJP1.node[13].udp 	droppedPkBadChecksum:count 	0
attr interpolationmode  none
attr title  "packets dropped (checksum error), count"
scalar scenarioPRJP1.node[13].udp 	droppedPkWrongPort:count 	0
attr interpolationmode  none
attr title  "packets dropped (wrong port), count"
scalar scenarioPRJP1.node[13].udp 	passedUpPk:count 	430
attr interpolationmode  none
attr title  "packets passed up, count"
scalar scenarioPRJP1.node[13].udp 	rcvdPk:count 	430
attr interpolationmode  none
attr source  rcvdPk
attr title  "packets received, count"
scalar scenarioPRJP1.node[13].udp 	rcvdPk:sum(packetBytes) 	223600
attr interpolationmode  none
attr source  rcvdPk
attr title  "packets received, sum(packetBytes)"
scalar scenarioPRJP1.node[13].udp 	sentPk:count 	2599
attr interpolationmode  none
attr source  sentPk
attr title  "packets sent, count"
scalar scenarioPRJP1.node[13].udp 	sentPk:sum(packetBytes) 	1351480
attr interpolationmode  none
attr source  sentPk
attr title  "packets sent, sum(packetBytes)"
scalar scenarioPRJP1.node[13].networkLayer.arp 	failedARPResolution:count 	0
attr title  "ARP failed resolutions, count"
scalar scenarioPRJP1.node[13].networkLayer.arp 	completedARPResolution:count 	75
attr title  "ARP completed resolutions, count"
scalar scenarioPRJP1.node[13].networkLayer.arp 	initiatedARPResolution:count 	26
attr title  "ARP initiated resolutions, count"
scalar scenarioPRJP1.node[13].networkLayer.arp 	sentReply:count 	18
attr title  "ARP replies sent, count"
scalar scenarioPRJP1.node[13].networkLayer.arp 	sentReq:count 	31
attr title  "ARP request sent, count"
scalar scenarioPRJP1.node[13].mobility 	startTime 	2.5
scalar scenarioPRJP1.node[13].mobility 	totalTime 	947.5
scalar scenarioPRJP1.node[13].mobility 	stopTime 	950
scalar scenarioPRJP1.node[13].mobility 	minSpeed 	2.4755433864301e-13
scalar scenarioPRJP1.node[13].mobility 	maxSpeed 	21.074443799044
scalar scenarioPRJP1.node[13].mobility 	totalDistance 	10323.946172741
scalar scenarioPRJP1.node[13].mobility 	totalCO2Emission 	3003.2321891342
scalar scenarioPRJP1.node[13].wlan.mgmt 	dataQueueLen:max 	25
attr interpolationmode  sample-hold
attr title  "data queue length, max"
scalar scenarioPRJP1.node[13].wlan.mgmt 	dataQueueLen:timeavg 	0
attr interpolationmode  sample-hold
attr title  "data queue length, timeavg"
scalar scenarioPRJP1.node[13].wlan.mgmt 	dropPkByQueue:count 	0
attr interpolationmode  none
attr source  dropPkByQueue
attr title  "packets dropped by queue, count"
scalar scenarioPRJP1.node[13].wlan.mgmt 	dropPkByQueue:sum(packetBytes) 	0
attr interpolationmode  none
attr source  dropPkByQueue
attr title  "packets dropped by queue, sum(packetBytes)"
scalar scenarioPRJP1.node[13].wlan.mac 	"number of received packets" 	3468
scalar scenarioPRJP1.node[13].wlan.mac 	"number of collisions" 	2080
scalar scenarioPRJP1.node[13].wlan.mac 	"number of internal collisions" 	0
scalar scenarioPRJP1.node[13].wlan.mac 	"number of retry for AC 0" 	4031
scalar scenarioPRJP1.node[13].wlan.mac 	"number of retry for AC 1" 	0
scalar scenarioPRJP1.node[13].wlan.mac 	"number of retry for AC 2" 	0
scalar scenarioPRJP1.node[13].wlan.mac 	"number of retry for AC 3" 	0
scalar scenarioPRJP1.node[13].wlan.mac 	"sent and received bits" 	5147848
scalar scenarioPRJP1.node[13].wlan.mac 	"sent packet within AC 0" 	196
scalar scenarioPRJP1.node[13].wlan.mac 	"sent packet within AC 1" 	0
scalar scenarioPRJP1.node[13].wlan.mac 	"sent packet within AC 2" 	0
scalar scenarioPRJP1.node[13].wlan.mac 	"sent packet within AC 3" 	0
scalar scenarioPRJP1.node[13].wlan.mac 	"sent in TXOP " 	0
scalar scenarioPRJP1.node[13].wlan.mac 	"sentWithoutRetry AC 0" 	178
scalar scenarioPRJP1.node[13].wlan.mac 	"sentWithoutRetry AC 1" 	0
scalar scenarioPRJP1.node[13].wlan.mac 	"sentWithoutRetry AC 2" 	0
scalar scenarioPRJP1.node[13].wlan.mac 	"sentWithoutRetry AC 3" 	0
scalar scenarioPRJP1.node[13].wlan.mac 	"numGivenUp AC 0" 	664
scalar scenarioPRJP1.node[13].wlan.mac 	"numGivenUp AC 1" 	0
scalar scenarioPRJP1.node[13].wlan.mac 	"numGivenUp AC 2" 	0
scalar scenarioPRJP1.node[13].wlan.mac 	"numGivenUp AC 3" 	0
scalar scenarioPRJP1.node[13].wlan.mac 	"numDropped AC 0" 	0
scalar scenarioPRJP1.node[13].wlan.mac 	"numDropped AC 1" 	0
scalar scenarioPRJP1.node[13].wlan.mac 	"numDropped AC 2" 	0
scalar scenarioPRJP1.node[13].wlan.mac 	"numDropped AC 3" 	0
scalar scenarioPRJP1.node[13].wlan.mac 	rcvdPkFromLL:count 	25002
attr interpolationmode  none
attr source  packetReceivedFromLower
attr title  "packets received from lower layer, count"
scalar scenarioPRJP1.node[13].wlan.mac 	rcvdPkFromLL:sum(packetBytes) 	6670772
attr interpolationmode  none
attr source  packetReceivedFromLower
attr title  "packets received from lower layer, sum(packetBytes)"
scalar scenarioPRJP1.node[13].wlan.mac 	sentDownPk:count 	13155
attr interpolationmode  none
attr source  packetSentToLower
attr title  "packets sent to lower layer, count"
scalar scenarioPRJP1.node[13].wlan.mac 	sentDownPk:sum(packetBytes) 	3287434
attr interpolationmode  none
attr source  packetSentToLower
attr title  "packets sent to lower layer, sum(packetBytes)"
scalar scenarioPRJP1.node[13].wlan.mac 	rcvdPkFromHL:count 	5656
attr interpolationmode  none
attr source  packetReceivedFromUpper
attr title  "packets received from higher layer, count"
scalar scenarioPRJP1.node[13].wlan.mac 	rcvdPkFromHL:sum(packetBytes) 	1010455
attr interpolationmode  none
attr source  packetReceivedFromUpper
attr title  "packets received from higher layer, sum(packetBytes)"
scalar scenarioPRJP1.node[13].wlan.mac 	passedUpPk:count 	7442
attr interpolationmode  none
attr source  packetSentToUpper
attr title  "packets passed to higher layer, count"
scalar scenarioPRJP1.node[13].wlan.mac 	passedUpPk:sum(packetBytes) 	1180701
attr interpolationmode  none
attr source  packetSentToUpper
attr title  "packets passed to higher layer, sum(packetBytes)"
statistic scenarioPRJP1.node[13].wlan.radio 	radioChannel:histogram
field count 1
field mean 3
field stddev -nan
field sum 3
field sqrsum 9
field min 3
field max 3
attr interpolationmode  sample-hold
attr source  radioChannelChanged
attr title  "Radio channel, histogram"
bin	-INF	0
bin	2	0
bin	3	1
bin	4	0
scalar scenarioPRJP1.node[13].wlan.radio 	transmissionState:count 	52620
attr interpolationmode  sample-hold
attr source  transmissionStateChanged
attr title  "Radio transmission state, count"
scalar scenarioPRJP1.node[13].wlan.radio 	receptionState:count 	76461
attr interpolationmode  sample-hold
attr source  receptionStateChanged
attr title  "Radio reception state, count"
scalar scenarioPRJP1.node[13].wlan.radio 	radioMode:count 	26312
attr interpolationmode  sample-hold
attr source  radioModeChanged
attr title  "Radio mode, count"
statistic scenarioPRJP1.node[13].wlan.radio 	symbolErrorRate:histogram
field count 0
field mean -nan
field stddev -nan
field sum 0
field sqrsum 0
field min -nan
field max -nan
attr source  symbolErrorRate
attr title  "Symbol error rate, histogram"
bin	-INF	0
bin	-0.5	0
bin	-0.46666666666667	0
bin	-0.43333333333333	0
bin	-0.4	0
bin	-0.36666666666667	0
bin	-0.33333333333333	0
bin	-0.3	0
bin	-0.26666666666667	0
bin	-0.23333333333333	0
bin	-0.2	0
bin	-0.16666666666667	0
bin	-0.13333333333333	0
bin	-0.1	0
bin	-0.066666666666667	0
bin	-0.033333333333333	0
bin	0	0
bin	0.033333333333333	0
bin	0.066666666666667	0
bin	0.1	0
bin	0.13333333333333	0
bin	0.16666666666667	0
bin	0.2	0
bin	0.23333333333333	0
bin	0.26666666666667	0
bin	0.3	0
bin	0.33333333333333	0
bin	0.36666666666667	0
bin	0.4	0
bin	0.43333333333333	0
bin	0.46666666666667	0
bin	0.5	0
statistic scenarioPRJP1.node[13].wlan.radio 	bitErrorRate:histogram
field count 0
field mean -nan
field stddev -nan
field sum 0
field sqrsum 0
field min -nan
field max -nan
attr source  bitErrorRate
attr title  "Bit error rate, histogram"
bin	-INF	0
bin	-0.5	0
bin	-0.46666666666667	0
bin	-0.43333333333333	0
bin	-0.4	0
bin	-0.36666666666667	0
bin	-0.33333333333333	0
bin	-0.3	0
bin	-0.26666666666667	0
bin	-0.23333333333333	0
bin	-0.2	0
bin	-0.16666666666667	0
bin	-0.13333333333333	0
bin	-0.1	0
bin	-0.066666666666667	0
bin	-0.033333333333333	0
bin	0	0
bin	0.033333333333333	0
bin	0.066666666666667	0
bin	0.1	0
bin	0.13333333333333	0
bin	0.16666666666667	0
bin	0.2	0
bin	0.23333333333333	0
bin	0.26666666666667	0
bin	0.3	0
bin	0.33333333333333	0
bin	0.36666666666667	0
bin	0.4	0
bin	0.43333333333333	0
bin	0.46666666666667	0
bin	0.5	0
statistic scenarioPRJP1.node[13].wlan.radio 	packetErrorRate:histogram
field count 25002
field mean 0.073957841259896
field stddev 0.25333578307101
field sum 1849.0939471799
field sqrsum 1741.2946502442
field min 0
field max 1
attr source  packetErrorRate
attr title  "Packet error rate, histogram"
bin	-INF	0
bin	-0.5	0
bin	-0.43333333333333	0
bin	-0.36666666666667	0
bin	-0.3	0
bin	-0.23333333333333	0
bin	-0.16666666666667	0
bin	-0.1	0
bin	-0.033333333333333	22653
bin	0.033333333333333	247
bin	0.1	86
bin	0.16666666666667	70
bin	0.23333333333333	60
bin	0.3	30
bin	0.36666666666667	27
bin	0.43333333333333	22
bin	0.5	24
bin	0.56666666666667	30
bin	0.63333333333333	29
bin	0.7	27
bin	0.76666666666667	28
bin	0.83333333333333	23
bin	0.9	52
bin	0.96666666666667	1594
bin	1.0333333333333	0
bin	1.1	0
bin	1.1666666666667	0
bin	1.2333333333333	0
bin	1.3	0
bin	1.3666666666667	0
bin	1.4333333333333	0
bin	1.5	0
statistic scenarioPRJP1.node[13].wlan.radio 	minSNIR:histogram
field count 25002
field mean 1626.6766323597
field stddev 13061.118268677
field sum 40670169.162257
field sqrsum 4331148067329.8
field min 0.0097717583597698
field max 514672.65995358
attr source  minSNIR
attr title  "Min SNIR, histogram"
bin	-INF	0
bin	-17013.452327729	0
bin	-14744.853360032	0
bin	-12476.254392336	0
bin	-10207.65542464	0
bin	-7939.056456944	0
bin	-5670.4574892479	0
bin	-3401.8585215517	0
bin	-1133.2595538556	23416
bin	1135.3394138405	716
bin	3403.9383815367	181
bin	5672.5373492328	88
bin	7941.136316929	54
bin	10209.735284625	94
bin	12478.334252321	43
bin	14746.933220017	22
bin	17015.532187714	17
bin	19284.13115541	20
bin	21552.730123106	25
bin	23821.329090802	12
bin	26089.928058498	15
bin	28358.527026194	8
bin	30627.12599389	23
bin	32895.724961587	12
bin	35164.323929283	7
bin	37432.922896979	38
bin	39701.521864675	10
bin	41970.120832371	9
bin	44238.719800067	2
bin	46507.318767763	0
bin	48775.91773546	3
bin	51044.516703156	187
scalar scenarioPRJP1.node[13].lo0.lo 	droppedPkBitError:count 	0
attr interpolationmode  none
attr source  dropPkBitError
attr title  "packets dropped/bit error, count"
scalar scenarioPRJP1.node[13].lo0.lo 	droppedPkBitError:sum(packetBytes) 	0
attr interpolationmode  none
attr source  dropPkBitError
attr title  "packets dropped/bit error, sum(packetBytes)"
scalar scenarioPRJP1.node[13].lo0.lo 	rcvdPkFromHL:count 	0
attr interpolationmode  none
attr source  packetReceivedFromUpper
attr title  "packets received from higher layer, count"
scalar scenarioPRJP1.node[13].lo0.lo 	rcvdPkFromHL:sum(packetBytes) 	0
attr interpolationmode  none
attr source  packetReceivedFromUpper
attr title  "packets received from higher layer, sum(packetBytes)"
scalar scenarioPRJP1.node[13].lo0.lo 	passedUpPk:count 	0
attr interpolationmode  none
attr source  packetSentToUpper
attr title  "packets passed to higher layer, count"
scalar scenarioPRJP1.node[13].lo0.lo 	passedUpPk:sum(packetBytes) 	0
attr interpolationmode  none
attr source  packetSentToUpper
attr title  "packets passed to higher layer, sum(packetBytes)"
scalar scenarioPRJP1.node[1].app 	"Total sent" 	2614
scalar scenarioPRJP1.node[1].app 	"Total received" 	409
scalar scenarioPRJP1.node[1].app 	"Total deleted" 	49
scalar scenarioPRJP1.node[1].app 	dropPk:count 	49
attr interpolationmode  none
attr source  dropPk
attr title  "packets dropped, count"
scalar scenarioPRJP1.node[1].app 	dropPk:sum(packetBytes) 	25088
attr interpolationmode  none
attr source  dropPk
attr title  "packets dropped, sum(packetBytes)"
scalar scenarioPRJP1.node[1].app 	outOfOrderPk:count 	0
attr interpolationmode  none
attr source  outOfOrderPk
attr title  "packets received out of order, count"
scalar scenarioPRJP1.node[1].app 	outOfOrderPk:sum(packetBytes) 	0
attr interpolationmode  none
attr source  outOfOrderPk
attr title  "packets received out of order, sum(packetBytes)"
scalar scenarioPRJP1.node[1].app 	rcvdPk:count 	409
attr interpolationmode  none
attr source  rcvdPk
attr title  "packets received, count"
scalar scenarioPRJP1.node[1].app 	rcvdPk:sum(packetBytes) 	209408
attr interpolationmode  none
attr source  rcvdPk
attr title  "packets received, sum(packetBytes)"
statistic scenarioPRJP1.node[1].app 	endToEndDelay:histogram
field count 409
field mean 3.4360651975792
field stddev 5.4249259387286
field sum 1405.3506658099
field sqrsum 16836.243660986
field min 0.000945025215
field max 19.997388250272
attr interpolationmode  none
attr source  messageAge(rcvdPk)
attr title  "delay, histogram"
attr unit  s
bin	-INF	0
bin	-9.777920994076	0
bin	-8.4740720951276	0
bin	-7.1702231961792	0
bin	-5.8663742972308	0
bin	-4.5625253982824	0
bin	-3.258676499334	0
bin	-1.9548276003856	0
bin	-0.6509787014372	245
bin	0.6528701975112	17
bin	1.9567190964596	20
bin	3.260567995408	13
bin	4.5644168943564	15
bin	5.8682657933048	9
bin	7.1721146922532	13
bin	8.4759635912016	11
bin	9.77981249015	14
bin	11.083661389098	13
bin	12.387510288047	6
bin	13.691359186995	6
bin	14.995208085944	7
bin	16.299056984892	8
bin	17.60290588384	5
bin	18.906754782789	7
bin	20.210603681737	0
bin	21.514452580686	0
bin	22.818301479634	0
bin	24.122150378582	0
bin	25.425999277531	0
bin	26.729848176479	0
bin	28.033697075428	0
bin	29.337545974376	0
scalar scenarioPRJP1.node[1].app 	sentPk:count 	2614
attr interpolationmode  none
attr source  sentPk
attr title  "packets sent, count"
scalar scenarioPRJP1.node[1].app 	sentPk:sum(packetBytes) 	1338368
attr interpolationmode  none
attr source  sentPk
attr title  "packets sent, sum(packetBytes)"
scalar scenarioPRJP1.node[1].udp 	droppedPkBadChecksum:count 	0
attr interpolationmode  none
attr title  "packets dropped (checksum error), count"
scalar scenarioPRJP1.node[1].udp 	droppedPkWrongPort:count 	0
attr interpolationmode  none
attr title  "packets dropped (wrong port), count"
scalar scenarioPRJP1.node[1].udp 	passedUpPk:count 	458
attr interpolationmode  none
attr title  "packets passed up, count"
scalar scenarioPRJP1.node[1].udp 	rcvdPk:count 	458
attr interpolationmode  none
attr source  rcvdPk
attr title  "packets received, count"
scalar scenarioPRJP1.node[1].udp 	rcvdPk:sum(packetBytes) 	238160
attr interpolationmode  none
attr source  rcvdPk
attr title  "packets received, sum(packetBytes)"
scalar scenarioPRJP1.node[1].udp 	sentPk:count 	2614
attr interpolationmode  none
attr source  sentPk
attr title  "packets sent, count"
scalar scenarioPRJP1.node[1].udp 	sentPk:sum(packetBytes) 	1359280
attr interpolationmode  none
attr source  sentPk
attr title  "packets sent, sum(packetBytes)"
scalar scenarioPRJP1.node[1].networkLayer.arp 	failedARPResolution:count 	1
attr title  "ARP failed resolutions, count"
scalar scenarioPRJP1.node[1].networkLayer.arp 	completedARPResolution:count 	83
attr title  "ARP completed resolutions, count"
scalar scenarioPRJP1.node[1].networkLayer.arp 	initiatedARPResolution:count 	24
attr title  "ARP initiated resolutions, count"
scalar scenarioPRJP1.node[1].networkLayer.arp 	sentReply:count 	19
attr title  "ARP replies sent, count"
scalar scenarioPRJP1.node[1].networkLayer.arp 	sentReq:count 	30
attr title  "ARP request sent, count"
scalar scenarioPRJP1.node[1].mobility 	startTime 	0.1
scalar scenarioPRJP1.node[1].mobility 	totalTime 	949.9
scalar scenarioPRJP1.node[1].mobility 	stopTime 	950
scalar scenarioPRJP1.node[1].mobility 	minSpeed 	2.4757321243618e-13
scalar scenarioPRJP1.node[1].mobility 	maxSpeed 	20.134898561529
scalar scenarioPRJP1.node[1].mobility 	totalDistance 	10694.280260074
scalar scenarioPRJP1.node[1].mobility 	totalCO2Emission 	3005.1336860095
scalar scenarioPRJP1.node[1].wlan.mgmt 	dataQueueLen:max 	24
attr interpolationmode  sample-hold
attr title  "data queue length, max"
scalar scenarioPRJP1.node[1].wlan.mgmt 	dataQueueLen:timeavg 	0
attr interpolationmode  sample-hold
attr title  "data queue length, timeavg"
scalar scenarioPRJP1.node[1].wlan.mgmt 	dropPkByQueue:count 	0
attr interpolationmode  none
attr source  dropPkByQueue
attr title  "packets dropped by queue, count"
scalar scenarioPRJP1.node[1].wlan.mgmt 	dropPkByQueue:sum(packetBytes) 	0
attr interpolationmode  none
attr source  dropPkByQueue
attr title  "packets dropped by queue, sum(packetBytes)"
scalar scenarioPRJP1.node[1].wlan.mac 	"number of received packets" 	3620
scalar scenarioPRJP1.node[1].wlan.mac 	"number of collisions" 	3123
scalar scenarioPRJP1.node[1].wlan.mac 	"number of internal collisions" 	0
scalar scenarioPRJP1.node[1].wlan.mac 	"number of retry for AC 0" 	4383
scalar scenarioPRJP1.node[1].wlan.mac 	"number of retry for AC 1" 	0
scalar scenarioPRJP1.node[1].wlan.mac 	"number of retry for AC 2" 	0
scalar scenarioPRJP1.node[1].wlan.mac 	"number of retry for AC 3" 	0
scalar scenarioPRJP1.node[1].wlan.mac 	"sent and received bits" 	6179792
scalar scenarioPRJP1.node[1].wlan.mac 	"sent packet within AC 0" 	320
scalar scenarioPRJP1.node[1].wlan.mac 	"sent packet within AC 1" 	0
scalar scenarioPRJP1.node[1].wlan.mac 	"sent packet within AC 2" 	0
scalar scenarioPRJP1.node[1].wlan.mac 	"sent packet within AC 3" 	0
scalar scenarioPRJP1.node[1].wlan.mac 	"sent in TXOP " 	0
scalar scenarioPRJP1.node[1].wlan.mac 	"sentWithoutRetry AC 0" 	302
scalar scenarioPRJP1.node[1].wlan.mac 	"sentWithoutRetry AC 1" 	0
scalar scenarioPRJP1.node[1].wlan.mac 	"sentWithoutRetry AC 2" 	0
scalar scenarioPRJP1.node[1].wlan.mac 	"sentWithoutRetry AC 3" 	0
scalar scenarioPRJP1.node[1].wlan.mac 	"numGivenUp AC 0" 	724
scalar scenarioPRJP1.node[1].wlan.mac 	"numGivenUp AC 1" 	0
scalar scenarioPRJP1.node[1].wlan.mac 	"numGivenUp AC 2" 	0
scalar scenarioPRJP1.node[1].wlan.mac 	"numGivenUp AC 3" 	0
scalar scenarioPRJP1.node[1].wlan.mac 	"numDropped AC 0" 	0
scalar scenarioPRJP1.node[1].wlan.mac 	"numDropped AC 1" 	0
scalar scenarioPRJP1.node[1].wlan.mac 	"numDropped AC 2" 	0
scalar scenarioPRJP1.node[1].wlan.mac 	"numDropped AC 3" 	0
scalar scenarioPRJP1.node[1].wlan.mac 	rcvdPkFromLL:count 	31132
attr interpolationmode  none
attr source  packetReceivedFromLower
attr title  "packets received from lower layer, count"
scalar scenarioPRJP1.node[1].wlan.mac 	rcvdPkFromLL:sum(packetBytes) 	7769156
attr interpolationmode  none
attr source  packetReceivedFromLower
attr title  "packets received from lower layer, sum(packetBytes)"
scalar scenarioPRJP1.node[1].wlan.mac 	sentDownPk:count 	14461
attr interpolationmode  none
attr source  packetSentToLower
attr title  "packets sent to lower layer, count"
scalar scenarioPRJP1.node[1].wlan.mac 	sentDownPk:sum(packetBytes) 	3660339
attr interpolationmode  none
attr source  packetSentToLower
attr title  "packets sent to lower layer, sum(packetBytes)"
scalar scenarioPRJP1.node[1].wlan.mac 	rcvdPkFromHL:count 	6458
attr interpolationmode  none
attr source  packetReceivedFromUpper
attr title  "packets received from higher layer, count"
scalar scenarioPRJP1.node[1].wlan.mac 	rcvdPkFromHL:sum(packetBytes) 	1174577
attr interpolationmode  none
attr source  packetReceivedFromUpper
attr title  "packets received from higher layer, sum(packetBytes)"
scalar scenarioPRJP1.node[1].wlan.mac 	passedUpPk:count 	11639
attr interpolationmode  none
attr source  packetSentToUpper
attr title  "packets passed to higher layer, count"
scalar scenarioPRJP1.node[1].wlan.mac 	passedUpPk:sum(packetBytes) 	1775332
attr interpolationmode  none
attr source  packetSentToUpper
attr title  "packets passed to higher layer, sum(packetBytes)"
statistic scenarioPRJP1.node[1].wlan.radio 	radioChannel:histogram
field count 1
field mean 3
field stddev -nan
field sum 3
field sqrsum 9
field min 3
field max 3
attr interpolationmode  sample-hold
attr source  radioChannelChanged
attr title  "Radio channel, histogram"
bin	-INF	0
bin	2	0
bin	3	1
bin	4	0
scalar scenarioPRJP1.node[1].wlan.radio 	transmissionState:count 	57844
attr interpolationmode  sample-hold
attr source  transmissionStateChanged
attr title  "Radio transmission state, count"
scalar scenarioPRJP1.node[1].wlan.radio 	receptionState:count 	91581
attr interpolationmode  sample-hold
attr source  receptionStateChanged
attr title  "Radio reception state, count"
scalar scenarioPRJP1.node[1].wlan.radio 	radioMode:count 	28924
attr interpolationmode  sample-hold
attr source  radioModeChanged
attr title  "Radio mode, count"
statistic scenarioPRJP1.node[1].wlan.radio 	symbolErrorRate:histogram
field count 0
field mean -nan
field stddev -nan
field sum 0
field sqrsum 0
field min -nan
field max -nan
attr source  symbolErrorRate
attr title  "Symbol error rate, histogram"
bin	-INF	0
bin	-0.5	0
bin	-0.46666666666667	0
bin	-0.43333333333333	0
bin	-0.4	0
bin	-0.36666666666667	0
bin	-0.33333333333333	0
bin	-0.3	0
bin	-0.26666666666667	0
bin	-0.23333333333333	0
bin	-0.2	0
bin	-0.16666666666667	0
bin	-0.13333333333333	0
bin	-0.1	0
bin	-0.066666666666667	0
bin	-0.033333333333333	0
bin	0	0
bin	0.033333333333333	0
bin	0.066666666666667	0
bin	0.1	0
bin	0.13333333333333	0
bin	0.16666666666667	0
bin	0.2	0
bin	0.23333333333333	0
bin	0.26666666666667	0
bin	0.3	0
bin	0.33333333333333	0
bin	0.36666666666667	0
bin	0.4	0
bin	0.43333333333333	0
bin	0.46666666666667	0
bin	0.5	0
statistic scenarioPRJP1.node[1].wlan.radio 	bitErrorRate:histogram
field count 0
field mean -nan
field stddev -nan
field sum 0
field sqrsum 0
field min -nan
field max -nan
attr source  bitErrorRate
attr title  "Bit error rate, histogram"
bin	-INF	0
bin	-0.5	0
bin	-0.46666666666667	0
bin	-0.43333333333333	0
bin	-0.4	0
bin	-0.36666666666667	0
bin	-0.33333333333333	0
bin	-0.3	0
bin	-0.26666666666667	0
bin	-0.23333333333333	0
bin	-0.2	0
bin	-0.16666666666667	0
bin	-0.13333333333333	0
bin	-0.1	0
bin	-0.066666666666667	0
bin	-0.033333333333333	0
bin	0	0
bin	0.033333333333333	0
bin	0.066666666666667	0
bin	0.1	0
bin	0.13333333333333	0
bin	0.16666666666667	0
bin	0.2	0
bin	0.23333333333333	0
bin	0.26666666666667	0
bin	0.3	0
bin	0.33333333333333	0
bin	0.36666666666667	0
bin	0.4	0
bin	0.43333333333333	0
bin	0.46666666666667	0
bin	0.5	0
statistic scenarioPRJP1.node[1].wlan.radio 	packetErrorRate:histogram
field count 31132
field mean 0.090767696264863
field stddev 0.28140614063253
field sum 2825.7799201177
field sqrsum 2721.7352425513
field min 0
field max 1
attr source  packetErrorRate
attr title  "Packet error rate, histogram"
bin	-INF	0
bin	-0.5	0
bin	-0.43333333333333	0
bin	-0.36666666666667	0
bin	-0.3	0
bin	-0.23333333333333	0
bin	-0.16666666666667	0
bin	-0.1	0
bin	-0.033333333333333	27874
bin	0.033333333333333	169
bin	0.1	100
bin	0.16666666666667	69
bin	0.23333333333333	41
bin	0.3	26
bin	0.36666666666667	26
bin	0.43333333333333	42
bin	0.5	24
bin	0.56666666666667	22
bin	0.63333333333333	27
bin	0.7	23
bin	0.76666666666667	31
bin	0.83333333333333	37
bin	0.9	66
bin	0.96666666666667	2555
bin	1.0333333333333	0
bin	1.1	0
bin	1.1666666666667	0
bin	1.2333333333333	0
bin	1.3	0
bin	1.3666666666667	0
bin	1.4333333333333	0
bin	1.5	0
statistic scenarioPRJP1.node[1].wlan.radio 	minSNIR:histogram
field count 31132
field mean 15610.834444343
field stddev 92119.011946604
field sum 485996497.92128
field sqrsum 2.7176174861158e+14
field min 0.0003776612261492
field max 753239.71923443
attr source  minSNIR
attr title  "Min SNIR, histogram"
bin	-INF	0
bin	-85806.591105216	0
bin	-74365.697346936	0
bin	-62924.803588657	0
bin	-51483.909830377	0
bin	-40043.016072097	0
bin	-28602.122313818	0
bin	-17161.228555538	0
bin	-5720.3347972582	28038
bin	5720.5589610215	1168
bin	17161.452719301	422
bin	28602.346477581	201
bin	40043.240235861	108
bin	51484.13399414	76
bin	62925.02775242	54
bin	74365.9215107	35
bin	85806.81526898	35
bin	97247.709027259	19
bin	108688.60278554	30
bin	120129.49654382	24
bin	131570.3903021	40
bin	143011.28406038	204
bin	154452.17781866	7
bin	165893.07157694	24
bin	177333.96533522	157
bin	188774.8590935	6
bin	200215.75285178	0
bin	211656.64661006	0
bin	223097.54036834	0
bin	234538.43412662	0
bin	245979.3278849	0
bin	257420.22164318	484
scalar scenarioPRJP1.node[1].lo0.lo 	droppedPkBitError:count 	0
attr interpolationmode  none
attr source  dropPkBitError
attr title  "packets dropped/bit error, count"
scalar scenarioPRJP1.node[1].lo0.lo 	droppedPkBitError:sum(packetBytes) 	0
attr interpolationmode  none
attr source  dropPkBitError
attr title  "packets dropped/bit error, sum(packetBytes)"
scalar scenarioPRJP1.node[1].lo0.lo 	rcvdPkFromHL:count 	0
attr interpolationmode  none
attr source  packetReceivedFromUpper
attr title  "packets received from higher layer, count"
scalar scenarioPRJP1.node[1].lo0.lo 	rcvdPkFromHL:sum(packetBytes) 	0
attr interpolationmode  none
attr source  packetReceivedFromUpper
attr title  "packets received from higher layer, sum(packetBytes)"
scalar scenarioPRJP1.node[1].lo0.lo 	passedUpPk:count 	0
attr interpolationmode  none
attr source  packetSentToUpper
attr title  "packets passed to higher layer, count"
scalar scenarioPRJP1.node[1].lo0.lo 	passedUpPk:sum(packetBytes) 	0
attr interpolationmode  none
attr source  packetSentToUpper
attr title  "packets passed to higher layer, sum(packetBytes)"
scalar scenarioPRJP1.node[14].app 	"Total sent" 	2610
scalar scenarioPRJP1.node[14].app 	"Total received" 	296
scalar scenarioPRJP1.node[14].app 	"Total deleted" 	47
scalar scenarioPRJP1.node[14].app 	dropPk:count 	47
attr interpolationmode  none
attr source  dropPk
attr title  "packets dropped, count"
scalar scenarioPRJP1.node[14].app 	dropPk:sum(packetBytes) 	24064
attr interpolationmode  none
attr source  dropPk
attr title  "packets dropped, sum(packetBytes)"
scalar scenarioPRJP1.node[14].app 	outOfOrderPk:count 	0
attr interpolationmode  none
attr source  outOfOrderPk
attr title  "packets received out of order, count"
scalar scenarioPRJP1.node[14].app 	outOfOrderPk:sum(packetBytes) 	0
attr interpolationmode  none
attr source  outOfOrderPk
attr title  "packets received out of order, sum(packetBytes)"
scalar scenarioPRJP1.node[14].app 	rcvdPk:count 	296
attr interpolationmode  none
attr source  rcvdPk
attr title  "packets received, count"
scalar scenarioPRJP1.node[14].app 	rcvdPk:sum(packetBytes) 	151552
attr interpolationmode  none
attr source  rcvdPk
attr title  "packets received, sum(packetBytes)"
statistic scenarioPRJP1.node[14].app 	endToEndDelay:histogram
field count 296
field mean 3.7420817115113
field stddev 5.8725082605548
field sum 1107.6561866073
field sqrsum 14318.41417328
field min 0.000945011007
field max 19.808195949559
attr interpolationmode  none
attr source  messageAge(rcvdPk)
attr title  "delay, histogram"
attr unit  s
bin	-INF	0
bin	-9.405653696007	0
bin	-8.1514405338613	0
bin	-6.8972273717155	0
bin	-5.6430142095698	0
bin	-4.3888010474241	0
bin	-3.1345878852783	0
bin	-1.8803747231326	0
bin	-0.62616156098687	173
bin	0.62805160115887	17
bin	1.8822647633046	10
bin	3.1364779254503	14
bin	4.3906910875961	6
bin	5.6449042497418	8
bin	6.8991174118875	4
bin	8.1533305740333	4
bin	9.407543736179	10
bin	10.661756898325	7
bin	11.91597006047	6
bin	13.170183222616	8
bin	14.424396384762	6
bin	15.678609546908	7
bin	16.932822709053	5
bin	18.187035871199	9
bin	19.441249033345	2
bin	20.695462195491	0
bin	21.949675357636	0
bin	23.203888519782	0
bin	24.458101681928	0
bin	25.712314844074	0
bin	26.966528006219	0
bin	28.220741168365	0
scalar scenarioPRJP1.node[14].app 	sentPk:count 	2610
attr interpolationmode  none
attr source  sentPk
attr title  "packets sent, count"
scalar scenarioPRJP1.node[14].app 	sentPk:sum(packetBytes) 	1336320
attr interpolationmode  none
attr source  sentPk
attr title  "packets sent, sum(packetBytes)"
scalar scenarioPRJP1.node[14].udp 	droppedPkBadChecksum:count 	0
attr interpolationmode  none
attr title  "packets dropped (checksum error), count"
scalar scenarioPRJP1.node[14].udp 	droppedPkWrongPort:count 	0
attr interpolationmode  none
attr title  "packets dropped (wrong port), count"
scalar scenarioPRJP1.node[14].udp 	passedUpPk:count 	343
attr interpolationmode  none
attr title  "packets passed up, count"
scalar scenarioPRJP1.node[14].udp 	rcvdPk:count 	343
attr interpolationmode  none
attr source  rcvdPk
attr title  "packets received, count"
scalar scenarioPRJP1.node[14].udp 	rcvdPk:sum(packetBytes) 	178360
attr interpolationmode  none
attr source  rcvdPk
attr title  "packets received, sum(packetBytes)"
scalar scenarioPRJP1.node[14].udp 	sentPk:count 	2610
attr interpolationmode  none
attr source  sentPk
attr title  "packets sent, count"
scalar scenarioPRJP1.node[14].udp 	sentPk:sum(packetBytes) 	1357200
attr interpolationmode  none
attr source  sentPk
attr title  "packets sent, sum(packetBytes)"
scalar scenarioPRJP1.node[14].networkLayer.arp 	failedARPResolution:count 	1
attr title  "ARP failed resolutions, count"
scalar scenarioPRJP1.node[14].networkLayer.arp 	completedARPResolution:count 	65
attr title  "ARP completed resolutions, count"
scalar scenarioPRJP1.node[14].networkLayer.arp 	initiatedARPResolution:count 	21
attr title  "ARP initiated resolutions, count"
scalar scenarioPRJP1.node[14].networkLayer.arp 	sentReply:count 	11
attr title  "ARP replies sent, count"
scalar scenarioPRJP1.node[14].networkLayer.arp 	sentReq:count 	27
attr title  "ARP request sent, count"
scalar scenarioPRJP1.node[14].mobility 	startTime 	2.5
scalar scenarioPRJP1.node[14].mobility 	totalTime 	947.5
scalar scenarioPRJP1.node[14].mobility 	stopTime 	950
scalar scenarioPRJP1.node[14].mobility 	minSpeed 	2.4756212587189e-13
scalar scenarioPRJP1.node[14].mobility 	maxSpeed 	18.104775939057
scalar scenarioPRJP1.node[14].mobility 	totalDistance 	9657.3219227135
scalar scenarioPRJP1.node[14].mobility 	totalCO2Emission 	2591.7665055701
scalar scenarioPRJP1.node[14].wlan.mgmt 	dataQueueLen:max 	13
attr interpolationmode  sample-hold
attr title  "data queue length, max"
scalar scenarioPRJP1.node[14].wlan.mgmt 	dataQueueLen:timeavg 	0
attr interpolationmode  sample-hold
attr title  "data queue length, timeavg"
scalar scenarioPRJP1.node[14].wlan.mgmt 	dropPkByQueue:count 	0
attr interpolationmode  none
attr source  dropPkByQueue
attr title  "packets dropped by queue, count"
scalar scenarioPRJP1.node[14].wlan.mgmt 	dropPkByQueue:sum(packetBytes) 	0
attr interpolationmode  none
attr source  dropPkByQueue
attr title  "packets dropped by queue, sum(packetBytes)"
scalar scenarioPRJP1.node[14].wlan.mac 	"number of received packets" 	2964
scalar scenarioPRJP1.node[14].wlan.mac 	"number of collisions" 	2814
scalar scenarioPRJP1.node[14].wlan.mac 	"number of internal collisions" 	0
scalar scenarioPRJP1.node[14].wlan.mac 	"number of retry for AC 0" 	3720
scalar scenarioPRJP1.node[14].wlan.mac 	"number of retry for AC 1" 	0
scalar scenarioPRJP1.node[14].wlan.mac 	"number of retry for AC 2" 	0
scalar scenarioPRJP1.node[14].wlan.mac 	"number of retry for AC 3" 	0
scalar scenarioPRJP1.node[14].wlan.mac 	"sent and received bits" 	5214552
scalar scenarioPRJP1.node[14].wlan.mac 	"sent packet within AC 0" 	272
scalar scenarioPRJP1.node[14].wlan.mac 	"sent packet within AC 1" 	0
scalar scenarioPRJP1.node[14].wlan.mac 	"sent packet within AC 2" 	0
scalar scenarioPRJP1.node[14].wlan.mac 	"sent packet within AC 3" 	0
scalar scenarioPRJP1.node[14].wlan.mac 	"sent in TXOP " 	0
scalar scenarioPRJP1.node[14].wlan.mac 	"sentWithoutRetry AC 0" 	258
scalar scenarioPRJP1.node[14].wlan.mac 	"sentWithoutRetry AC 1" 	0
scalar scenarioPRJP1.node[14].wlan.mac 	"sentWithoutRetry AC 2" 	0
scalar scenarioPRJP1.node[14].wlan.mac 	"sentWithoutRetry AC 3" 	0
scalar scenarioPRJP1.node[14].wlan.mac 	"numGivenUp AC 0" 	616
scalar scenarioPRJP1.node[14].wlan.mac 	"numGivenUp AC 1" 	0
scalar scenarioPRJP1.node[14].wlan.mac 	"numGivenUp AC 2" 	0
scalar scenarioPRJP1.node[14].wlan.mac 	"numGivenUp AC 3" 	0
scalar scenarioPRJP1.node[14].wlan.mac 	"numDropped AC 0" 	0
scalar scenarioPRJP1.node[14].wlan.mac 	"numDropped AC 1" 	0
scalar scenarioPRJP1.node[14].wlan.mac 	"numDropped AC 2" 	0
scalar scenarioPRJP1.node[14].wlan.mac 	"numDropped AC 3" 	0
scalar scenarioPRJP1.node[14].wlan.mac 	rcvdPkFromLL:count 	30618
attr interpolationmode  none
attr source  packetReceivedFromLower
attr title  "packets received from lower layer, count"
scalar scenarioPRJP1.node[14].wlan.mac 	rcvdPkFromLL:sum(packetBytes) 	8317453
attr interpolationmode  none
attr source  packetReceivedFromLower
attr title  "packets received from lower layer, sum(packetBytes)"
scalar scenarioPRJP1.node[14].wlan.mac 	sentDownPk:count 	12255
attr interpolationmode  none
attr source  packetSentToLower
attr title  "packets sent to lower layer, count"
scalar scenarioPRJP1.node[14].wlan.mac 	sentDownPk:sum(packetBytes) 	3098010
attr interpolationmode  none
attr source  packetSentToLower
attr title  "packets sent to lower layer, sum(packetBytes)"
scalar scenarioPRJP1.node[14].wlan.mac 	rcvdPkFromHL:count 	5571
attr interpolationmode  none
attr source  packetReceivedFromUpper
attr title  "packets received from higher layer, count"
scalar scenarioPRJP1.node[14].wlan.mac 	rcvdPkFromHL:sum(packetBytes) 	993372
attr interpolationmode  none
attr source  packetReceivedFromUpper
attr title  "packets received from higher layer, sum(packetBytes)"
scalar scenarioPRJP1.node[14].wlan.mac 	passedUpPk:count 	8769
attr interpolationmode  none
attr source  packetSentToUpper
attr title  "packets passed to higher layer, count"
scalar scenarioPRJP1.node[14].wlan.mac 	passedUpPk:sum(packetBytes) 	1338373
attr interpolationmode  none
attr source  packetSentToUpper
attr title  "packets passed to higher layer, sum(packetBytes)"
statistic scenarioPRJP1.node[14].wlan.radio 	radioChannel:histogram
field count 1
field mean 3
field stddev -nan
field sum 3
field sqrsum 9
field min 3
field max 3
attr interpolationmode  sample-hold
attr source  radioChannelChanged
attr title  "Radio channel, histogram"
bin	-INF	0
bin	2	0
bin	3	1
bin	4	0
scalar scenarioPRJP1.node[14].wlan.radio 	transmissionState:count 	49020
attr interpolationmode  sample-hold
attr source  transmissionStateChanged
attr title  "Radio transmission state, count"
scalar scenarioPRJP1.node[14].wlan.radio 	receptionState:count 	86008
attr interpolationmode  sample-hold
attr source  receptionStateChanged
attr title  "Radio reception state, count"
scalar scenarioPRJP1.node[14].wlan.radio 	radioMode:count 	24512
attr interpolationmode  sample-hold
attr source  radioModeChanged
attr title  "Radio mode, count"
statistic scenarioPRJP1.node[14].wlan.radio 	symbolErrorRate:histogram
field count 0
field mean -nan
field stddev -nan
field sum 0
field sqrsum 0
field min -nan
field max -nan
attr source  symbolErrorRate
attr title  "Symbol error rate, histogram"
bin	-INF	0
bin	-0.5	0
bin	-0.46666666666667	0
bin	-0.43333333333333	0
bin	-0.4	0
bin	-0.36666666666667	0
bin	-0.33333333333333	0
bin	-0.3	0
bin	-0.26666666666667	0
bin	-0.23333333333333	0
bin	-0.2	0
bin	-0.16666666666667	0
bin	-0.13333333333333	0
bin	-0.1	0
bin	-0.066666666666667	0
bin	-0.033333333333333	0
bin	0	0
bin	0.033333333333333	0
bin	0.066666666666667	0
bin	0.1	0
bin	0.13333333333333	0
bin	0.16666666666667	0
bin	0.2	0
bin	0.23333333333333	0
bin	0.26666666666667	0
bin	0.3	0
bin	0.33333333333333	0
bin	0.36666666666667	0
bin	0.4	0
bin	0.43333333333333	0
bin	0.46666666666667	0
bin	0.5	0
statistic scenarioPRJP1.node[14].wlan.radio 	bitErrorRate:histogram
field count 0
field mean -nan
field stddev -nan
field sum 0
field sqrsum 0
field min -nan
field max -nan
attr source  bitErrorRate
attr title  "Bit error rate, histogram"
bin	-INF	0
bin	-0.5	0
bin	-0.46666666666667	0
bin	-0.43333333333333	0
bin	-0.4	0
bin	-0.36666666666667	0
bin	-0.33333333333333	0
bin	-0.3	0
bin	-0.26666666666667	0
bin	-0.23333333333333	0
bin	-0.2	0
bin	-0.16666666666667	0
bin	-0.13333333333333	0
bin	-0.1	0
bin	-0.066666666666667	0
bin	-0.033333333333333	0
bin	0	0
bin	0.033333333333333	0
bin	0.066666666666667	0
bin	0.1	0
bin	0.13333333333333	0
bin	0.16666666666667	0
bin	0.2	0
bin	0.23333333333333	0
bin	0.26666666666667	0
bin	0.3	0
bin	0.33333333333333	0
bin	0.36666666666667	0
bin	0.4	0
bin	0.43333333333333	0
bin	0.46666666666667	0
bin	0.5	0
statistic scenarioPRJP1.node[14].wlan.radio 	packetErrorRate:histogram
field count 30618
field mean 0.085586170719644
field stddev 0.27304613842195
field sum 2620.477375094
field sqrsum 2506.9023727233
field min 0
field max 1
attr source  packetErrorRate
attr title  "Packet error rate, histogram"
bin	-INF	0
bin	-0.5	0
bin	-0.46666666666667	0
bin	-0.43333333333333	0
bin	-0.4	0
bin	-0.36666666666667	0
bin	-0.33333333333333	0
bin	-0.3	0
bin	-0.26666666666667	0
bin	-0.23333333333333	0
bin	-0.2	0
bin	-0.16666666666667	0
bin	-0.13333333333333	0
bin	-0.1	0
bin	-0.066666666666667	0
bin	-0.033333333333333	0
bin	0	27494
bin	0.033333333333333	137
bin	0.066666666666667	86
bin	0.1	80
bin	0.13333333333333	49
bin	0.16666666666667	34
bin	0.2	25
bin	0.23333333333333	22
bin	0.26666666666667	17
bin	0.3	14
bin	0.33333333333333	19
bin	0.36666666666667	17
bin	0.4	8
bin	0.43333333333333	5
bin	0.46666666666667	14
bin	0.5	2597
statistic scenarioPRJP1.node[14].wlan.radio 	minSNIR:histogram
field count 30618
field mean 22199.281360129
field stddev 115222.35703297
field sum 679697596.68442
field sqrsum 4.2156595518823e+14
field min 0.00022236215553747
field max 753239.71923443
attr source  minSNIR
attr title  "Min SNIR, histogram"
bin	-INF	0
bin	-19625.426664023	0
bin	-17007.642532517	0
bin	-14389.858401012	0
bin	-11772.074269507	0
bin	-9154.2901380018	0
bin	-6536.5060064965	0
bin	-3918.7218749913	0
bin	-1300.9377434861	25522
bin	1316.8463880191	1045
bin	3934.6305195243	394
bin	6552.4146510296	378
bin	9170.1987825348	518
bin	11787.98291404	576
bin	14405.767045545	162
bin	17023.55117705	147
bin	19641.335308556	224
bin	22259.119440061	45
bin	24876.903571566	41
bin	27494.687703071	26
bin	30112.471834577	27
bin	32730.255966082	16
bin	35348.040097587	35
bin	37965.824229092	38
bin	40583.608360597	15
bin	43201.392492103	15
bin	45819.176623608	18
bin	48436.960755113	13
bin	51054.744886618	17
bin	53672.529018124	11
bin	56290.313149629	11
bin	58908.097281134	1324
scalar scenarioPRJP1.node[14].lo0.lo 	droppedPkBitError:count 	0
attr interpolationmode  none
attr source  dropPkBitError
attr title  "packets dropped/bit error, count"
scalar scenarioPRJP1.node[14].lo0.lo 	droppedPkBitError:sum(packetBytes) 	0
attr interpolationmode  none
attr source  dropPkBitError
attr title  "packets dropped/bit error, sum(packetBytes)"
scalar scenarioPRJP1.node[14].lo0.lo 	rcvdPkFromHL:count 	0
attr interpolationmode  none
attr source  packetReceivedFromUpper
attr title  "packets received from higher layer, count"
scalar scenarioPRJP1.node[14].lo0.lo 	rcvdPkFromHL:sum(packetBytes) 	0
attr interpolationmode  none
attr source  packetReceivedFromUpper
attr title  "packets received from higher layer, sum(packetBytes)"
scalar scenarioPRJP1.node[14].lo0.lo 	passedUpPk:count 	0
attr interpolationmode  none
attr source  packetSentToUpper
attr title  "packets passed to higher layer, count"
scalar scenarioPRJP1.node[14].lo0.lo 	passedUpPk:sum(packetBytes) 	0
attr interpolationmode  none
attr source  packetSentToUpper
attr title  "packets passed to higher layer, sum(packetBytes)"
scalar scenarioPRJP1.node[2].app 	"Total sent" 	2607
scalar scenarioPRJP1.node[2].app 	"Total received" 	499
scalar scenarioPRJP1.node[2].app 	"Total deleted" 	84
scalar scenarioPRJP1.node[2].app 	dropPk:count 	84
attr interpolationmode  none
attr source  dropPk
attr title  "packets dropped, count"
scalar scenarioPRJP1.node[2].app 	dropPk:sum(packetBytes) 	43008
attr interpolationmode  none
attr source  dropPk
attr title  "packets dropped, sum(packetBytes)"
scalar scenarioPRJP1.node[2].app 	outOfOrderPk:count 	0
attr interpolationmode  none
attr source  outOfOrderPk
attr title  "packets received out of order, count"
scalar scenarioPRJP1.node[2].app 	outOfOrderPk:sum(packetBytes) 	0
attr interpolationmode  none
attr source  outOfOrderPk
attr title  "packets received out of order, sum(packetBytes)"
scalar scenarioPRJP1.node[2].app 	rcvdPk:count 	499
attr interpolationmode  none
attr source  rcvdPk
attr title  "packets received, count"
scalar scenarioPRJP1.node[2].app 	rcvdPk:sum(packetBytes) 	255488
attr interpolationmode  none
attr source  rcvdPk
attr title  "packets received, sum(packetBytes)"
statistic scenarioPRJP1.node[2].app 	endToEndDelay:histogram
field count 499
field mean 4.0336028423981
field stddev 5.9497882672777
field sum 2012.7678183567
field sqrsum 25747.896245078
field min 0.000945016539
field max 19.984087601135
attr interpolationmode  none
attr source  messageAge(rcvdPk)
attr title  "delay, histogram"
attr unit  s
bin	-INF	0
bin	-9.99062626654	0
bin	-8.65841676131	0
bin	-7.32620725608	0
bin	-5.99399775085	0
bin	-4.66178824562	0
bin	-3.32957874039	0
bin	-1.99736923516	0
bin	-0.66515972993	295
bin	0.6670497753	17
bin	1.99925928053	15
bin	3.33146878576	10
bin	4.66367829099	16
bin	5.99588779622	17
bin	7.32809730145	20
bin	8.66030680668	9
bin	9.99251631191	17
bin	11.32472581714	16
bin	12.65693532237	18
bin	13.9891448276	12
bin	15.32135433283	4
bin	16.65356383806	17
bin	17.98577334329	8
bin	19.31798284852	8
bin	20.65019235375	0
bin	21.98240185898	0
bin	23.31461136421	0
bin	24.64682086944	0
bin	25.97903037467	0
bin	27.3112398799	0
bin	28.64344938513	0
bin	29.97565889036	0
scalar scenarioPRJP1.node[2].app 	sentPk:count 	2607
attr interpolationmode  none
attr source  sentPk
attr title  "packets sent, count"
scalar scenarioPRJP1.node[2].app 	sentPk:sum(packetBytes) 	1334784
attr interpolationmode  none
attr source  sentPk
attr title  "packets sent, sum(packetBytes)"
scalar scenarioPRJP1.node[2].udp 	droppedPkBadChecksum:count 	0
attr interpolationmode  none
attr title  "packets dropped (checksum error), count"
scalar scenarioPRJP1.node[2].udp 	droppedPkWrongPort:count 	0
attr interpolationmode  none
attr title  "packets dropped (wrong port), count"
scalar scenarioPRJP1.node[2].udp 	passedUpPk:count 	583
attr interpolationmode  none
attr title  "packets passed up, count"
scalar scenarioPRJP1.node[2].udp 	rcvdPk:count 	583
attr interpolationmode  none
attr source  rcvdPk
attr title  "packets received, count"
scalar scenarioPRJP1.node[2].udp 	rcvdPk:sum(packetBytes) 	303160
attr interpolationmode  none
attr source  rcvdPk
attr title  "packets received, sum(packetBytes)"
scalar scenarioPRJP1.node[2].udp 	sentPk:count 	2607
attr interpolationmode  none
attr source  sentPk
attr title  "packets sent, count"
scalar scenarioPRJP1.node[2].udp 	sentPk:sum(packetBytes) 	1355640
attr interpolationmode  none
attr source  sentPk
attr title  "packets sent, sum(packetBytes)"
scalar scenarioPRJP1.node[2].networkLayer.arp 	failedARPResolution:count 	1
attr title  "ARP failed resolutions, count"
scalar scenarioPRJP1.node[2].networkLayer.arp 	completedARPResolution:count 	120
attr title  "ARP completed resolutions, count"
scalar scenarioPRJP1.node[2].networkLayer.arp 	initiatedARPResolution:count 	24
attr title  "ARP initiated resolutions, count"
scalar scenarioPRJP1.node[2].networkLayer.arp 	sentReply:count 	24
attr title  "ARP replies sent, count"
scalar scenarioPRJP1.node[2].networkLayer.arp 	sentReq:count 	31
attr title  "ARP request sent, count"
scalar scenarioPRJP1.node[2].mobility 	startTime 	0.1
scalar scenarioPRJP1.node[2].mobility 	totalTime 	949.9
scalar scenarioPRJP1.node[2].mobility 	stopTime 	950
scalar scenarioPRJP1.node[2].mobility 	minSpeed 	2.4757532351991e-13
scalar scenarioPRJP1.node[2].mobility 	maxSpeed 	19.268759785739
scalar scenarioPRJP1.node[2].mobility 	totalDistance 	10386.713283943
scalar scenarioPRJP1.node[2].mobility 	totalCO2Emission 	2897.2174889636
scalar scenarioPRJP1.node[2].wlan.mgmt 	dataQueueLen:max 	23
attr interpolationmode  sample-hold
attr title  "data queue length, max"
scalar scenarioPRJP1.node[2].wlan.mgmt 	dataQueueLen:timeavg 	0
attr interpolationmode  sample-hold
attr title  "data queue length, timeavg"
scalar scenarioPRJP1.node[2].wlan.mgmt 	dropPkByQueue:count 	0
attr interpolationmode  none
attr source  dropPkByQueue
attr title  "packets dropped by queue, count"
scalar scenarioPRJP1.node[2].wlan.mgmt 	dropPkByQueue:sum(packetBytes) 	0
attr interpolationmode  none
attr source  dropPkByQueue
attr title  "packets dropped by queue, sum(packetBytes)"
scalar scenarioPRJP1.node[2].wlan.mac 	"number of received packets" 	5149
scalar scenarioPRJP1.node[2].wlan.mac 	"number of collisions" 	5063
scalar scenarioPRJP1.node[2].wlan.mac 	"number of internal collisions" 	0
scalar scenarioPRJP1.node[2].wlan.mac 	"number of retry for AC 0" 	6243
scalar scenarioPRJP1.node[2].wlan.mac 	"number of retry for AC 1" 	6
scalar scenarioPRJP1.node[2].wlan.mac 	"number of retry for AC 2" 	0
scalar scenarioPRJP1.node[2].wlan.mac 	"number of retry for AC 3" 	0
scalar scenarioPRJP1.node[2].wlan.mac 	"sent and received bits" 	7456528
scalar scenarioPRJP1.node[2].wlan.mac 	"sent packet within AC 0" 	453
scalar scenarioPRJP1.node[2].wlan.mac 	"sent packet within AC 1" 	0
scalar scenarioPRJP1.node[2].wlan.mac 	"sent packet within AC 2" 	0
scalar scenarioPRJP1.node[2].wlan.mac 	"sent packet within AC 3" 	0
scalar scenarioPRJP1.node[2].wlan.mac 	"sent in TXOP " 	0
scalar scenarioPRJP1.node[2].wlan.mac 	"sentWithoutRetry AC 0" 	425
scalar scenarioPRJP1.node[2].wlan.mac 	"sentWithoutRetry AC 1" 	0
scalar scenarioPRJP1.node[2].wlan.mac 	"sentWithoutRetry AC 2" 	0
scalar scenarioPRJP1.node[2].wlan.mac 	"sentWithoutRetry AC 3" 	0
scalar scenarioPRJP1.node[2].wlan.mac 	"numGivenUp AC 0" 	1032
scalar scenarioPRJP1.node[2].wlan.mac 	"numGivenUp AC 1" 	1
scalar scenarioPRJP1.node[2].wlan.mac 	"numGivenUp AC 2" 	0
scalar scenarioPRJP1.node[2].wlan.mac 	"numGivenUp AC 3" 	0
scalar scenarioPRJP1.node[2].wlan.mac 	"numDropped AC 0" 	0
scalar scenarioPRJP1.node[2].wlan.mac 	"numDropped AC 1" 	0
scalar scenarioPRJP1.node[2].wlan.mac 	"numDropped AC 2" 	0
scalar scenarioPRJP1.node[2].wlan.mac 	"numDropped AC 3" 	0
scalar scenarioPRJP1.node[2].wlan.mac 	rcvdPkFromLL:count 	50240
attr interpolationmode  none
attr source  packetReceivedFromLower
attr title  "packets received from lower layer, count"
scalar scenarioPRJP1.node[2].wlan.mac 	rcvdPkFromLL:sum(packetBytes) 	13215458
attr interpolationmode  none
attr source  packetReceivedFromLower
attr title  "packets received from lower layer, sum(packetBytes)"
scalar scenarioPRJP1.node[2].wlan.mac 	sentDownPk:count 	18902
attr interpolationmode  none
attr source  packetSentToLower
attr title  "packets sent to lower layer, count"
scalar scenarioPRJP1.node[2].wlan.mac 	sentDownPk:sum(packetBytes) 	5057065
attr interpolationmode  none
attr source  packetSentToLower
attr title  "packets sent to lower layer, sum(packetBytes)"
scalar scenarioPRJP1.node[2].wlan.mac 	rcvdPkFromHL:count 	7504
attr interpolationmode  none
attr source  packetReceivedFromUpper
attr title  "packets received from higher layer, count"
scalar scenarioPRJP1.node[2].wlan.mac 	rcvdPkFromHL:sum(packetBytes) 	1506857
attr interpolationmode  none
attr source  packetReceivedFromUpper
attr title  "packets received from higher layer, sum(packetBytes)"
scalar scenarioPRJP1.node[2].wlan.mac 	passedUpPk:count 	15161
attr interpolationmode  none
attr source  packetSentToUpper
attr title  "packets passed to higher layer, count"
scalar scenarioPRJP1.node[2].wlan.mac 	passedUpPk:sum(packetBytes) 	2362718
attr interpolationmode  none
attr source  packetSentToUpper
attr title  "packets passed to higher layer, sum(packetBytes)"
statistic scenarioPRJP1.node[2].wlan.radio 	radioChannel:histogram
field count 1
field mean 3
field stddev -nan
field sum 3
field sqrsum 9
field min 3
field max 3
attr interpolationmode  sample-hold
attr source  radioChannelChanged
attr title  "Radio channel, histogram"
bin	-INF	0
bin	2	0
bin	3	1
bin	4	0
scalar scenarioPRJP1.node[2].wlan.radio 	transmissionState:count 	75608
attr interpolationmode  sample-hold
attr source  transmissionStateChanged
attr title  "Radio transmission state, count"
scalar scenarioPRJP1.node[2].wlan.radio 	receptionState:count 	138944
attr interpolationmode  sample-hold
attr source  receptionStateChanged
attr title  "Radio reception state, count"
scalar scenarioPRJP1.node[2].wlan.radio 	radioMode:count 	37806
attr interpolationmode  sample-hold
attr source  radioModeChanged
attr title  "Radio mode, count"
statistic scenarioPRJP1.node[2].wlan.radio 	symbolErrorRate:histogram
field count 0
field mean -nan
field stddev -nan
field sum 0
field sqrsum 0
field min -nan
field max -nan
attr source  symbolErrorRate
attr title  "Symbol error rate, histogram"
bin	-INF	0
bin	-0.5	0
bin	-0.46666666666667	0
bin	-0.43333333333333	0
bin	-0.4	0
bin	-0.36666666666667	0
bin	-0.33333333333333	0
bin	-0.3	0
bin	-0.26666666666667	0
bin	-0.23333333333333	0
bin	-0.2	0
bin	-0.16666666666667	0
bin	-0.13333333333333	0
bin	-0.1	0
bin	-0.066666666666667	0
bin	-0.033333333333333	0
bin	0	0
bin	0.033333333333333	0
bin	0.066666666666667	0
bin	0.1	0
bin	0.13333333333333	0
bin	0.16666666666667	0
bin	0.2	0
bin	0.23333333333333	0
bin	0.26666666666667	0
bin	0.3	0
bin	0.33333333333333	0
bin	0.36666666666667	0
bin	0.4	0
bin	0.43333333333333	0
bin	0.46666666666667	0
bin	0.5	0
statistic scenarioPRJP1.node[2].wlan.radio 	bitErrorRate:histogram
field count 0
field mean -nan
field stddev -nan
field sum 0
field sqrsum 0
field min -nan
field max -nan
attr source  bitErrorRate
attr title  "Bit error rate, histogram"
bin	-INF	0
bin	-0.5	0
bin	-0.46666666666667	0
bin	-0.43333333333333	0
bin	-0.4	0
bin	-0.36666666666667	0
bin	-0.33333333333333	0
bin	-0.3	0
bin	-0.26666666666667	0
bin	-0.23333333333333	0
bin	-0.2	0
bin	-0.16666666666667	0
bin	-0.13333333333333	0
bin	-0.1	0
bin	-0.066666666666667	0
bin	-0.033333333333333	0
bin	0	0
bin	0.033333333333333	0
bin	0.066666666666667	0
bin	0.1	0
bin	0.13333333333333	0
bin	0.16666666666667	0
bin	0.2	0
bin	0.23333333333333	0
bin	0.26666666666667	0
bin	0.3	0
bin	0.33333333333333	0
bin	0.36666666666667	0
bin	0.4	0
bin	0.43333333333333	0
bin	0.46666666666667	0
bin	0.5	0
statistic scenarioPRJP1.node[2].wlan.radio 	packetErrorRate:histogram
field count 50240
field mean 0.09241205833513
field stddev 0.28387383908411
field sum 4642.781810757
field sqrsum 4477.526510558
field min 0
field max 1
attr source  packetErrorRate
attr title  "Packet error rate, histogram"
bin	-INF	0
bin	-0.5	0
bin	-0.46666666666667	0
bin	-0.43333333333333	0
bin	-0.4	0
bin	-0.36666666666667	0
bin	-0.33333333333333	0
bin	-0.3	0
bin	-0.26666666666667	0
bin	-0.23333333333333	0
bin	-0.2	0
bin	-0.16666666666667	0
bin	-0.13333333333333	0
bin	-0.1	0
bin	-0.066666666666667	0
bin	-0.033333333333333	0
bin	0	44890
bin	0.033333333333333	173
bin	0.066666666666667	119
bin	0.1	91
bin	0.13333333333333	56
bin	0.16666666666667	59
bin	0.2	48
bin	0.23333333333333	37
bin	0.26666666666667	29
bin	0.3	33
bin	0.33333333333333	34
bin	0.36666666666667	29
bin	0.4	17
bin	0.43333333333333	37
bin	0.46666666666667	19
bin	0.5	4569
statistic scenarioPRJP1.node[2].wlan.radio 	minSNIR:histogram
field count 50240
field mean 21825.29598388
field stddev 110326.62953541
field sum 1096502870.2301
field sqrsum 6.3543885860124e+14
field min 0.00032262036491613
field max 3901844.0351552
attr source  minSNIR
attr title  "Min SNIR, histogram"
bin	-INF	0
bin	-87369.535568839	0
bin	-75604.523038952	0
bin	-63839.510509064	0
bin	-52074.497979177	0
bin	-40309.48544929	0
bin	-28544.472919402	0
bin	-16779.460389515	0
bin	-5014.4478596279	44385
bin	6750.5646702593	1498
bin	18515.577200147	1145
bin	30280.589730034	253
bin	42045.602259921	290
bin	53810.614789808	126
bin	65575.627319696	64
bin	77340.639849583	50
bin	89105.65237947	36
bin	100870.66490936	37
bin	112635.67743924	33
bin	124400.68996913	27
bin	136165.70249902	898
bin	147930.71502891	25
bin	159695.72755879	56
bin	171460.74008868	103
bin	183225.75261857	81
bin	194990.76514846	10
bin	206755.77767834	5
bin	218520.79020823	3
bin	230285.80273812	2
bin	242050.815268	8
bin	253815.82779789	2
bin	265580.84032778	1103
scalar scenarioPRJP1.node[2].lo0.lo 	droppedPkBitError:count 	0
attr interpolationmode  none
attr source  dropPkBitError
attr title  "packets dropped/bit error, count"
scalar scenarioPRJP1.node[2].lo0.lo 	droppedPkBitError:sum(packetBytes) 	0
attr interpolationmode  none
attr source  dropPkBitError
attr title  "packets dropped/bit error, sum(packetBytes)"
scalar scenarioPRJP1.node[2].lo0.lo 	rcvdPkFromHL:count 	0
attr interpolationmode  none
attr source  packetReceivedFromUpper
attr title  "packets received from higher layer, count"
scalar scenarioPRJP1.node[2].lo0.lo 	rcvdPkFromHL:sum(packetBytes) 	0
attr interpolationmode  none
attr source  packetReceivedFromUpper
attr title  "packets received from higher layer, sum(packetBytes)"
scalar scenarioPRJP1.node[2].lo0.lo 	passedUpPk:count 	0
attr interpolationmode  none
attr source  packetSentToUpper
attr title  "packets passed to higher layer, count"
scalar scenarioPRJP1.node[2].lo0.lo 	passedUpPk:sum(packetBytes) 	0
attr interpolationmode  none
attr source  packetSentToUpper
attr title  "packets passed to higher layer, sum(packetBytes)"
scalar scenarioPRJP1.node[15].app 	"Total sent" 	2615
scalar scenarioPRJP1.node[15].app 	"Total received" 	430
scalar scenarioPRJP1.node[15].app 	"Total deleted" 	55
scalar scenarioPRJP1.node[15].app 	dropPk:count 	55
attr interpolationmode  none
attr source  dropPk
attr title  "packets dropped, count"
scalar scenarioPRJP1.node[15].app 	dropPk:sum(packetBytes) 	28160
attr interpolationmode  none
attr source  dropPk
attr title  "packets dropped, sum(packetBytes)"
scalar scenarioPRJP1.node[15].app 	outOfOrderPk:count 	1
attr interpolationmode  none
attr source  outOfOrderPk
attr title  "packets received out of order, count"
scalar scenarioPRJP1.node[15].app 	outOfOrderPk:sum(packetBytes) 	512
attr interpolationmode  none
attr source  outOfOrderPk
attr title  "packets received out of order, sum(packetBytes)"
scalar scenarioPRJP1.node[15].app 	rcvdPk:count 	430
attr interpolationmode  none
attr source  rcvdPk
attr title  "packets received, count"
scalar scenarioPRJP1.node[15].app 	rcvdPk:sum(packetBytes) 	220160
attr interpolationmode  none
attr source  rcvdPk
attr title  "packets received, sum(packetBytes)"
statistic scenarioPRJP1.node[15].app 	endToEndDelay:histogram
field count 430
field mean 4.7510993175914
field stddev 6.108616802503
field sum 2042.9727065643
field sqrsum 25714.586705899
field min 0.000945087374
field max 19.993498569248
attr interpolationmode  none
attr source  messageAge(rcvdPk)
attr title  "delay, histogram"
attr unit  s
bin	-INF	0
bin	-9.7528727037845	0
bin	-8.4523636255404	0
bin	-7.1518545472964	0
bin	-5.8513454690523	0
bin	-4.5508363908082	0
bin	-3.2503273125642	0
bin	-1.9498182343201	0
bin	-0.64930915607604	200
bin	0.65119992216803	33
bin	1.9517090004121	15
bin	3.2522180786562	20
bin	4.5527271569002	20
bin	5.8532362351443	17
bin	7.1537453133884	18
bin	8.4542543916324	9
bin	9.7547634698765	16
bin	11.055272548121	9
bin	12.355781626365	12
bin	13.656290704609	13
bin	14.956799782853	13
bin	16.257308861097	14
bin	17.557817939341	13
bin	18.858327017585	8
bin	20.158836095829	0
bin	21.459345174073	0
bin	22.759854252317	0
bin	24.060363330561	0
bin	25.360872408805	0
bin	26.661381487049	0
bin	27.961890565293	0
bin	29.262399643537	0
scalar scenarioPRJP1.node[15].app 	sentPk:count 	2615
attr interpolationmode  none
attr source  sentPk
attr title  "packets sent, count"
scalar scenarioPRJP1.node[15].app 	sentPk:sum(packetBytes) 	1338880
attr interpolationmode  none
attr source  sentPk
attr title  "packets sent, sum(packetBytes)"
scalar scenarioPRJP1.node[15].udp 	droppedPkBadChecksum:count 	0
attr interpolationmode  none
attr title  "packets dropped (checksum error), count"
scalar scenarioPRJP1.node[15].udp 	droppedPkWrongPort:count 	0
attr interpolationmode  none
attr title  "packets dropped (wrong port), count"
scalar scenarioPRJP1.node[15].udp 	passedUpPk:count 	486
attr interpolationmode  none
attr title  "packets passed up, count"
scalar scenarioPRJP1.node[15].udp 	rcvdPk:count 	486
attr interpolationmode  none
attr source  rcvdPk
attr title  "packets received, count"
scalar scenarioPRJP1.node[15].udp 	rcvdPk:sum(packetBytes) 	252720
attr interpolationmode  none
attr source  rcvdPk
attr title  "packets received, sum(packetBytes)"
scalar scenarioPRJP1.node[15].udp 	sentPk:count 	2615
attr interpolationmode  none
attr source  sentPk
attr title  "packets sent, count"
scalar scenarioPRJP1.node[15].udp 	sentPk:sum(packetBytes) 	1359800
attr interpolationmode  none
attr source  sentPk
attr title  "packets sent, sum(packetBytes)"
scalar scenarioPRJP1.node[15].networkLayer.arp 	failedARPResolution:count 	2
attr title  "ARP failed resolutions, count"
scalar scenarioPRJP1.node[15].networkLayer.arp 	completedARPResolution:count 	80
attr title  "ARP completed resolutions, count"
scalar scenarioPRJP1.node[15].networkLayer.arp 	initiatedARPResolution:count 	28
attr title  "ARP initiated resolutions, count"
scalar scenarioPRJP1.node[15].networkLayer.arp 	sentReply:count 	17
attr title  "ARP replies sent, count"
scalar scenarioPRJP1.node[15].networkLayer.arp 	sentReq:count 	36
attr title  "ARP request sent, count"
scalar scenarioPRJP1.node[15].mobility 	startTime 	2.5
scalar scenarioPRJP1.node[15].mobility 	totalTime 	947.5
scalar scenarioPRJP1.node[15].mobility 	stopTime 	950
scalar scenarioPRJP1.node[15].mobility 	minSpeed 	2.4758062917325e-13
scalar scenarioPRJP1.node[15].mobility 	maxSpeed 	19.370846064016
scalar scenarioPRJP1.node[15].mobility 	totalDistance 	8891.0752011133
scalar scenarioPRJP1.node[15].mobility 	totalCO2Emission 	2626.7494858153
scalar scenarioPRJP1.node[15].wlan.mgmt 	dataQueueLen:max 	22
attr interpolationmode  sample-hold
attr title  "data queue length, max"
scalar scenarioPRJP1.node[15].wlan.mgmt 	dataQueueLen:timeavg 	0
attr interpolationmode  sample-hold
attr title  "data queue length, timeavg"
scalar scenarioPRJP1.node[15].wlan.mgmt 	dropPkByQueue:count 	0
attr interpolationmode  none
attr source  dropPkByQueue
attr title  "packets dropped by queue, count"
scalar scenarioPRJP1.node[15].wlan.mgmt 	dropPkByQueue:sum(packetBytes) 	0
attr interpolationmode  none
attr source  dropPkByQueue
attr title  "packets dropped by queue, sum(packetBytes)"
scalar scenarioPRJP1.node[15].wlan.mac 	"number of received packets" 	3593
scalar scenarioPRJP1.node[15].wlan.mac 	"number of collisions" 	2875
scalar scenarioPRJP1.node[15].wlan.mac 	"number of internal collisions" 	0
scalar scenarioPRJP1.node[15].wlan.mac 	"number of retry for AC 0" 	4778
scalar scenarioPRJP1.node[15].wlan.mac 	"number of retry for AC 1" 	0
scalar scenarioPRJP1.node[15].wlan.mac 	"number of retry for AC 2" 	0
scalar scenarioPRJP1.node[15].wlan.mac 	"number of retry for AC 3" 	0
scalar scenarioPRJP1.node[15].wlan.mac 	"sent and received bits" 	5663288
scalar scenarioPRJP1.node[15].wlan.mac 	"sent packet within AC 0" 	256
scalar scenarioPRJP1.node[15].wlan.mac 	"sent packet within AC 1" 	0
scalar scenarioPRJP1.node[15].wlan.mac 	"sent packet within AC 2" 	0
scalar scenarioPRJP1.node[15].wlan.mac 	"sent packet within AC 3" 	0
scalar scenarioPRJP1.node[15].wlan.mac 	"sent in TXOP " 	0
scalar scenarioPRJP1.node[15].wlan.mac 	"sentWithoutRetry AC 0" 	232
scalar scenarioPRJP1.node[15].wlan.mac 	"sentWithoutRetry AC 1" 	0
scalar scenarioPRJP1.node[15].wlan.mac 	"sentWithoutRetry AC 2" 	0
scalar scenarioPRJP1.node[15].wlan.mac 	"sentWithoutRetry AC 3" 	0
scalar scenarioPRJP1.node[15].wlan.mac 	"numGivenUp AC 0" 	787
scalar scenarioPRJP1.node[15].wlan.mac 	"numGivenUp AC 1" 	0
scalar scenarioPRJP1.node[15].wlan.mac 	"numGivenUp AC 2" 	0
scalar scenarioPRJP1.node[15].wlan.mac 	"numGivenUp AC 3" 	0
scalar scenarioPRJP1.node[15].wlan.mac 	"numDropped AC 0" 	0
scalar scenarioPRJP1.node[15].wlan.mac 	"numDropped AC 1" 	0
scalar scenarioPRJP1.node[15].wlan.mac 	"numDropped AC 2" 	0
scalar scenarioPRJP1.node[15].wlan.mac 	"numDropped AC 3" 	0
scalar scenarioPRJP1.node[15].wlan.mac 	rcvdPkFromLL:count 	31187
attr interpolationmode  none
attr source  packetReceivedFromLower
attr title  "packets received from lower layer, count"
scalar scenarioPRJP1.node[15].wlan.mac 	rcvdPkFromLL:sum(packetBytes) 	8420197
attr interpolationmode  none
attr source  packetReceivedFromLower
attr title  "packets received from lower layer, sum(packetBytes)"
scalar scenarioPRJP1.node[15].wlan.mac 	sentDownPk:count 	14475
attr interpolationmode  none
attr source  packetSentToLower
attr title  "packets sent to lower layer, count"
scalar scenarioPRJP1.node[15].wlan.mac 	sentDownPk:sum(packetBytes) 	3845304
attr interpolationmode  none
attr source  packetSentToLower
attr title  "packets sent to lower layer, sum(packetBytes)"
scalar scenarioPRJP1.node[15].wlan.mac 	rcvdPkFromHL:count 	6104
attr interpolationmode  none
attr source  packetReceivedFromUpper
attr title  "packets received from higher layer, count"
scalar scenarioPRJP1.node[15].wlan.mac 	rcvdPkFromHL:sum(packetBytes) 	1144316
attr interpolationmode  none
attr source  packetReceivedFromUpper
attr title  "packets received from higher layer, sum(packetBytes)"
scalar scenarioPRJP1.node[15].wlan.mac 	passedUpPk:count 	8808
attr interpolationmode  none
attr source  packetSentToUpper
attr title  "packets passed to higher layer, count"
scalar scenarioPRJP1.node[15].wlan.mac 	passedUpPk:sum(packetBytes) 	1417150
attr interpolationmode  none
attr source  packetSentToUpper
attr title  "packets passed to higher layer, sum(packetBytes)"
statistic scenarioPRJP1.node[15].wlan.radio 	radioChannel:histogram
field count 1
field mean 3
field stddev -nan
field sum 3
field sqrsum 9
field min 3
field max 3
attr interpolationmode  sample-hold
attr source  radioChannelChanged
attr title  "Radio channel, histogram"
bin	-INF	0
[...]
attr source  packetReceivedFromUpper
attr title  "packets received from higher layer, sum(packetBytes)"
scalar scenarioPRJP1.node[12].wlan.mac 	passedUpPk:count 	12591
attr interpolationmode  none
attr source  packetSentToUpper
attr title  "packets passed to higher layer, count"
scalar scenarioPRJP1.node[12].wlan.mac 	passedUpPk:sum(packetBytes) 	1922508
attr interpolationmode  none
attr source  packetSentToUpper
attr title  "packets passed to higher layer, sum(packetBytes)"
statistic scenarioPRJP1.node[12].wlan.radio 	radioChannel:histogram
field count 1
field mean 3
field stddev -nan
field sum 3
field sqrsum 9
field min 3
field max 3
attr interpolationmode  sample-hold
attr source  radioChannelChanged
attr title  "Radio channel, histogram"
bin	-INF	0
bin	2	0
bin	3	1
bin	4	0
scalar scenarioPRJP1.node[12].wlan.radio 	transmissionState:count 	58932
attr interpolationmode  sample-hold
attr source  transmissionStateChanged
attr title  "Radio transmission state, count"
scalar scenarioPRJP1.node[12].wlan.radio 	receptionState:count 	110866
attr interpolationmode  sample-hold
attr source  receptionStateChanged
attr title  "Radio reception state, count"
scalar scenarioPRJP1.node[12].wlan.radio 	radioMode:count 	29468
attr interpolationmode  sample-hold
attr source  radioModeChanged
attr title  "Radio mode, count"
statistic scenarioPRJP1.node[12].wlan.radio 	symbolErrorRate:histogram
field count 0
field mean -nan
field stddev -nan
field sum 0
field sqrsum 0
field min -nan
field max -nan
attr source  symbolErrorRate
attr title  "Symbol error rate, histogram"
bin	-INF	0
bin	-0.5	0
bin	-0.46666666666667	0
bin	-0.43333333333333	0
bin	-0.4	0
bin	-0.36666666666667	0
bin	-0.33333333333333	0
bin	-0.3	0
bin	-0.26666666666667	0
bin	-0.23333333333333	0
bin	-0.2	0
bin	-0.16666666666667	0
bin	-0.13333333333333	0
bin	-0.1	0
bin	-0.066666666666667	0
bin	-0.033333333333333	0
bin	0	0
bin	0.033333333333333	0
bin	0.066666666666667	0
bin	0.1	0
bin	0.13333333333333	0
bin	0.16666666666667	0
bin	0.2	0
bin	0.23333333333333	0
bin	0.26666666666667	0
bin	0.3	0
bin	0.33333333333333	0
bin	0.36666666666667	0
bin	0.4	0
bin	0.43333333333333	0
bin	0.46666666666667	0
bin	0.5	0
statistic scenarioPRJP1.node[12].wlan.radio 	bitErrorRate:histogram
field count 0
field mean -nan
field stddev -nan
field sum 0
field sqrsum 0
field min -nan
field max -nan
attr source  bitErrorRate
attr title  "Bit error rate, histogram"
bin	-INF	0
bin	-0.5	0
bin	-0.46666666666667	0
bin	-0.43333333333333	0
bin	-0.4	0
bin	-0.36666666666667	0
bin	-0.33333333333333	0
bin	-0.3	0
bin	-0.26666666666667	0
bin	-0.23333333333333	0
bin	-0.2	0
bin	-0.16666666666667	0
bin	-0.13333333333333	0
bin	-0.1	0
bin	-0.066666666666667	0
bin	-0.033333333333333	0
bin	0	0
bin	0.033333333333333	0
bin	0.066666666666667	0
bin	0.1	0
bin	0.13333333333333	0
bin	0.16666666666667	0
bin	0.2	0
bin	0.23333333333333	0
bin	0.26666666666667	0
bin	0.3	0
bin	0.33333333333333	0
bin	0.36666666666667	0
bin	0.4	0
bin	0.43333333333333	0
bin	0.46666666666667	0
bin	0.5	0
statistic scenarioPRJP1.node[12].wlan.radio 	packetErrorRate:histogram
field count 40435
field mean 0.095417875820776
field stddev 0.28782860886855
field sum 3858.2218088131
field sqrsum 3717.9105164786
field min 0
field max 1
attr source  packetErrorRate
attr title  "Packet error rate, histogram"
bin	-INF	0
bin	-0.5	0
bin	-0.43333333333333	0
bin	-0.36666666666667	0
bin	-0.3	0
bin	-0.23333333333333	0
bin	-0.16666666666667	0
bin	-0.1	0
bin	-0.033333333333333	36025
bin	0.033333333333333	216
bin	0.1	92
bin	0.16666666666667	80
bin	0.23333333333333	46
bin	0.3	58
bin	0.36666666666667	70
bin	0.43333333333333	40
bin	0.5	58
bin	0.56666666666667	33
bin	0.63333333333333	34
bin	0.7	39
bin	0.76666666666667	25
bin	0.83333333333333	31
bin	0.9	50
bin	0.96666666666667	3538
bin	1.0333333333333	0
bin	1.1	0
bin	1.1666666666667	0
bin	1.2333333333333	0
bin	1.3	0
bin	1.3666666666667	0
bin	1.4333333333333	0
bin	1.5	0
statistic scenarioPRJP1.node[12].wlan.radio 	minSNIR:histogram
field count 40435
field mean 9088.3028688151
field stddev 66850.80248157
field sum 367485526.50054
field sqrsum 1.8404057039185e+14
field min 0.0010357699602224
field max 753239.71923443
attr source  minSNIR
attr title  "Min SNIR, histogram"
bin	-INF	0
bin	-375213.93595859	0
bin	-325185.12249258	0
bin	-275156.30902656	0
bin	-225127.49556055	0
bin	-175098.68209454	0
bin	-125069.86862853	0
bin	-75041.055162514	0
bin	-25012.241696502	39097
bin	25016.571769511	513
bin	75045.385235523	148
bin	125074.19870154	183
bin	175103.01216755	109
bin	225131.82563356	38
bin	275160.63909957	22
bin	325189.45256558	7
bin	375218.2660316	9
bin	425247.07949761	2
bin	475275.89296362	2
bin	525304.70642963	11
bin	575333.51989565	4
bin	625362.33336166	4
bin	675391.14682767	38
bin	725419.96029368	248
bin	775448.7737597	0
bin	825477.58722571	0
bin	875506.40069172	0
bin	925535.21415773	0
bin	975564.02762374	0
bin	1025592.8410898	0
bin	1075621.6545558	0
bin	1125650.4680218	0
scalar scenarioPRJP1.node[12].lo0.lo 	droppedPkBitError:count 	0
attr interpolationmode  none
attr source  dropPkBitError
attr title  "packets dropped/bit error, count"
scalar scenarioPRJP1.node[12].lo0.lo 	droppedPkBitError:sum(packetBytes) 	0
attr interpolationmode  none
attr source  dropPkBitError
attr title  "packets dropped/bit error, sum(packetBytes)"
scalar scenarioPRJP1.node[12].lo0.lo 	rcvdPkFromHL:count 	0
attr interpolationmode  none
attr source  packetReceivedFromUpper
attr title  "packets received from higher layer, count"
scalar scenarioPRJP1.node[12].lo0.lo 	rcvdPkFromHL:sum(packetBytes) 	0
attr interpolationmode  none
attr source  packetReceivedFromUpper
attr title  "packets received from higher layer, sum(packetBytes)"
scalar scenarioPRJP1.node[12].lo0.lo 	passedUpPk:count 	0
attr interpolationmode  none
attr source  packetSentToUpper
attr title  "packets passed to higher layer, count"
scalar scenarioPRJP1.node[12].lo0.lo 	passedUpPk:sum(packetBytes) 	0
attr interpolationmode  none
attr source  packetSentToUpper
attr title  "packets passed to higher layer, sum(packetBytes)"
scalar scenarioPRJP1.node[23].app 	"Total sent" 	2615
scalar scenarioPRJP1.node[23].app 	"Total received" 	300
scalar scenarioPRJP1.node[23].app 	"Total deleted" 	63
scalar scenarioPRJP1.node[23].app 	dropPk:count 	63
attr interpolationmode  none
attr source  dropPk
attr title  "packets dropped, count"
scalar scenarioPRJP1.node[23].app 	dropPk:sum(packetBytes) 	32256
attr interpolationmode  none
attr source  dropPk
attr title  "packets dropped, sum(packetBytes)"
scalar scenarioPRJP1.node[23].app 	outOfOrderPk:count 	0
attr interpolationmode  none
attr source  outOfOrderPk
attr title  "packets received out of order, count"
scalar scenarioPRJP1.node[23].app 	outOfOrderPk:sum(packetBytes) 	0
attr interpolationmode  none
attr source  outOfOrderPk
attr title  "packets received out of order, sum(packetBytes)"
scalar scenarioPRJP1.node[23].app 	rcvdPk:count 	300
attr interpolationmode  none
attr source  rcvdPk
attr title  "packets received, count"
scalar scenarioPRJP1.node[23].app 	rcvdPk:sum(packetBytes) 	153600
attr interpolationmode  none
attr source  rcvdPk
attr title  "packets received, sum(packetBytes)"
statistic scenarioPRJP1.node[23].app 	endToEndDelay:histogram
field count 300
field mean 4.5390540388644
field stddev 6.0689608123282
field sum 1361.7162116593
field sqrsum 17193.75678745
field min 0.000945022685
field max 19.921219933796
attr interpolationmode  none
attr source  messageAge(rcvdPk)
attr title  "delay, histogram"
attr unit  s
bin	-INF	0
bin	-9.454775709102	0
bin	-8.1940128963336	0
bin	-6.9332500835652	0
bin	-5.6724872707968	0
bin	-4.4117244580284	0
bin	-3.15096164526	0
bin	-1.8901988324916	0
bin	-0.6294360197232	152
bin	0.6313267930452	12
bin	1.8920896058136	17
bin	3.152852418582	13
bin	4.4136152313504	10
bin	5.6743780441188	12
bin	6.9351408568872	9
bin	8.1959036696556	5
bin	9.456666482424	8
bin	10.717429295192	8
bin	11.978192107961	11
bin	13.238954920729	10
bin	14.499717733498	6
bin	15.760480546266	8
bin	17.021243359034	11
bin	18.282006171803	6
bin	19.542768984571	2
bin	20.80353179734	0
bin	22.064294610108	0
bin	23.325057422876	0
bin	24.585820235645	0
bin	25.846583048413	0
bin	27.107345861182	0
bin	28.36810867395	0
scalar scenarioPRJP1.node[23].app 	sentPk:count 	2615
attr interpolationmode  none
attr source  sentPk
attr title  "packets sent, count"
scalar scenarioPRJP1.node[23].app 	sentPk:sum(packetBytes) 	1338880
attr interpolationmode  none
attr source  sentPk
attr title  "packets sent, sum(packetBytes)"
scalar scenarioPRJP1.node[23].udp 	droppedPkBadChecksum:count 	0
attr interpolationmode  none
attr title  "packets dropped (checksum error), count"
scalar scenarioPRJP1.node[23].udp 	droppedPkWrongPort:count 	0
attr interpolationmode  none
attr title  "packets dropped (wrong port), count"
scalar scenarioPRJP1.node[23].udp 	passedUpPk:count 	363
attr interpolationmode  none
attr title  "packets passed up, count"
scalar scenarioPRJP1.node[23].udp 	rcvdPk:count 	363
attr interpolationmode  none
attr source  rcvdPk
attr title  "packets received, count"
scalar scenarioPRJP1.node[23].udp 	rcvdPk:sum(packetBytes) 	188760
attr interpolationmode  none
attr source  rcvdPk
attr title  "packets received, sum(packetBytes)"
scalar scenarioPRJP1.node[23].udp 	sentPk:count 	2615
attr interpolationmode  none
attr source  sentPk
attr title  "packets sent, count"
scalar scenarioPRJP1.node[23].udp 	sentPk:sum(packetBytes) 	1359800
attr interpolationmode  none
attr source  sentPk
attr title  "packets sent, sum(packetBytes)"
scalar scenarioPRJP1.node[23].networkLayer.arp 	failedARPResolution:count 	0
attr title  "ARP failed resolutions, count"
scalar scenarioPRJP1.node[23].networkLayer.arp 	completedARPResolution:count 	58
attr title  "ARP completed resolutions, count"
scalar scenarioPRJP1.node[23].networkLayer.arp 	initiatedARPResolution:count 	20
attr title  "ARP initiated resolutions, count"
scalar scenarioPRJP1.node[23].networkLayer.arp 	sentReply:count 	19
attr title  "ARP replies sent, count"
scalar scenarioPRJP1.node[23].networkLayer.arp 	sentReq:count 	24
attr title  "ARP request sent, count"
scalar scenarioPRJP1.node[23].mobility 	startTime 	2.5
scalar scenarioPRJP1.node[23].mobility 	totalTime 	947.5
scalar scenarioPRJP1.node[23].mobility 	stopTime 	950
scalar scenarioPRJP1.node[23].mobility 	minSpeed 	2.4754374843691e-13
scalar scenarioPRJP1.node[23].mobility 	maxSpeed 	17.606715868399
scalar scenarioPRJP1.node[23].mobility 	totalDistance 	10760.070135478
scalar scenarioPRJP1.node[23].mobility 	totalCO2Emission 	2730.6437782793
scalar scenarioPRJP1.node[23].wlan.mgmt 	dataQueueLen:max 	28
attr interpolationmode  sample-hold
attr title  "data queue length, max"
scalar scenarioPRJP1.node[23].wlan.mgmt 	dataQueueLen:timeavg 	0
attr interpolationmode  sample-hold
attr title  "data queue length, timeavg"
scalar scenarioPRJP1.node[23].wlan.mgmt 	dropPkByQueue:count 	0
attr interpolationmode  none
attr source  dropPkByQueue
attr title  "packets dropped by queue, count"
scalar scenarioPRJP1.node[23].wlan.mgmt 	dropPkByQueue:sum(packetBytes) 	0
attr interpolationmode  none
attr source  dropPkByQueue
attr title  "packets dropped by queue, sum(packetBytes)"
scalar scenarioPRJP1.node[23].wlan.mac 	"number of received packets" 	2812
scalar scenarioPRJP1.node[23].wlan.mac 	"number of collisions" 	1620
scalar scenarioPRJP1.node[23].wlan.mac 	"number of internal collisions" 	0
scalar scenarioPRJP1.node[23].wlan.mac 	"number of retry for AC 0" 	2930
scalar scenarioPRJP1.node[23].wlan.mac 	"number of retry for AC 1" 	0
scalar scenarioPRJP1.node[23].wlan.mac 	"number of retry for AC 2" 	0
scalar scenarioPRJP1.node[23].wlan.mac 	"number of retry for AC 3" 	0
scalar scenarioPRJP1.node[23].wlan.mac 	"sent and received bits" 	4651232
scalar scenarioPRJP1.node[23].wlan.mac 	"sent packet within AC 0" 	225
scalar scenarioPRJP1.node[23].wlan.mac 	"sent packet within AC 1" 	0
scalar scenarioPRJP1.node[23].wlan.mac 	"sent packet within AC 2" 	0
scalar scenarioPRJP1.node[23].wlan.mac 	"sent packet within AC 3" 	0
scalar scenarioPRJP1.node[23].wlan.mac 	"sent in TXOP " 	0
scalar scenarioPRJP1.node[23].wlan.mac 	"sentWithoutRetry AC 0" 	200
scalar scenarioPRJP1.node[23].wlan.mac 	"sentWithoutRetry AC 1" 	0
scalar scenarioPRJP1.node[23].wlan.mac 	"sentWithoutRetry AC 2" 	0
scalar scenarioPRJP1.node[23].wlan.mac 	"sentWithoutRetry AC 3" 	0
scalar scenarioPRJP1.node[23].wlan.mac 	"numGivenUp AC 0" 	479
scalar scenarioPRJP1.node[23].wlan.mac 	"numGivenUp AC 1" 	0
scalar scenarioPRJP1.node[23].wlan.mac 	"numGivenUp AC 2" 	0
scalar scenarioPRJP1.node[23].wlan.mac 	"numGivenUp AC 3" 	0
scalar scenarioPRJP1.node[23].wlan.mac 	"numDropped AC 0" 	0
scalar scenarioPRJP1.node[23].wlan.mac 	"numDropped AC 1" 	0
scalar scenarioPRJP1.node[23].wlan.mac 	"numDropped AC 2" 	0
scalar scenarioPRJP1.node[23].wlan.mac 	"numDropped AC 3" 	0
scalar scenarioPRJP1.node[23].wlan.mac 	rcvdPkFromLL:count 	20286
attr interpolationmode  none
attr source  packetReceivedFromLower
attr title  "packets received from lower layer, count"
scalar scenarioPRJP1.node[23].wlan.mac 	rcvdPkFromLL:sum(packetBytes) 	5424155
attr interpolationmode  none
attr source  packetReceivedFromLower
attr title  "packets received from lower layer, sum(packetBytes)"
scalar scenarioPRJP1.node[23].wlan.mac 	sentDownPk:count 	10801
attr interpolationmode  none
attr source  packetSentToLower
attr title  "packets sent to lower layer, count"
scalar scenarioPRJP1.node[23].wlan.mac 	sentDownPk:sum(packetBytes) 	2483143
attr interpolationmode  none
attr source  packetSentToLower
attr title  "packets sent to lower layer, sum(packetBytes)"
scalar scenarioPRJP1.node[23].wlan.mac 	rcvdPkFromHL:count 	5059
attr interpolationmode  none
attr source  packetReceivedFromUpper
attr title  "packets received from higher layer, count"
scalar scenarioPRJP1.node[23].wlan.mac 	rcvdPkFromHL:sum(packetBytes) 	842849
attr interpolationmode  none
attr source  packetReceivedFromUpper
attr title  "packets received from higher layer, sum(packetBytes)"
scalar scenarioPRJP1.node[23].wlan.mac 	passedUpPk:count 	6608
attr interpolationmode  none
attr source  packetSentToUpper
attr title  "packets passed to higher layer, count"
scalar scenarioPRJP1.node[23].wlan.mac 	passedUpPk:sum(packetBytes) 	1044972
attr interpolationmode  none
attr source  packetSentToUpper
attr title  "packets passed to higher layer, sum(packetBytes)"
statistic scenarioPRJP1.node[23].wlan.radio 	radioChannel:histogram
field count 1
field mean 3
field stddev -nan
field sum 3
field sqrsum 9
field min 3
field max 3
attr interpolationmode  sample-hold
attr source  radioChannelChanged
attr title  "Radio channel, histogram"
bin	-INF	0
bin	2	0
bin	3	1
bin	4	0
scalar scenarioPRJP1.node[23].wlan.radio 	transmissionState:count 	43204
attr interpolationmode  sample-hold
attr source  transmissionStateChanged
attr title  "Radio transmission state, count"
scalar scenarioPRJP1.node[23].wlan.radio 	receptionState:count 	62353
attr interpolationmode  sample-hold
attr source  receptionStateChanged
attr title  "Radio reception state, count"
scalar scenarioPRJP1.node[23].wlan.radio 	radioMode:count 	21604
attr interpolationmode  sample-hold
attr source  radioModeChanged
attr title  "Radio mode, count"
statistic scenarioPRJP1.node[23].wlan.radio 	symbolErrorRate:histogram
field count 0
field mean -nan
field stddev -nan
field sum 0
field sqrsum 0
field min -nan
field max -nan
attr source  symbolErrorRate
attr title  "Symbol error rate, histogram"
bin	-INF	0
bin	-0.5	0
bin	-0.46666666666667	0
bin	-0.43333333333333	0
bin	-0.4	0
bin	-0.36666666666667	0
bin	-0.33333333333333	0
bin	-0.3	0
bin	-0.26666666666667	0
bin	-0.23333333333333	0
bin	-0.2	0
bin	-0.16666666666667	0
bin	-0.13333333333333	0
bin	-0.1	0
bin	-0.066666666666667	0
bin	-0.033333333333333	0
bin	0	0
bin	0.033333333333333	0
bin	0.066666666666667	0
bin	0.1	0
bin	0.13333333333333	0
bin	0.16666666666667	0
bin	0.2	0
bin	0.23333333333333	0
bin	0.26666666666667	0
bin	0.3	0
bin	0.33333333333333	0
bin	0.36666666666667	0
bin	0.4	0
bin	0.43333333333333	0
bin	0.46666666666667	0
bin	0.5	0
statistic scenarioPRJP1.node[23].wlan.radio 	bitErrorRate:histogram
field count 0
field mean -nan
field stddev -nan
field sum 0
field sqrsum 0
field min -nan
field max -nan
attr source  bitErrorRate
attr title  "Bit error rate, histogram"
bin	-INF	0
bin	-0.5	0
bin	-0.46666666666667	0
bin	-0.43333333333333	0
bin	-0.4	0
bin	-0.36666666666667	0
bin	-0.33333333333333	0
bin	-0.3	0
bin	-0.26666666666667	0
bin	-0.23333333333333	0
bin	-0.2	0
bin	-0.16666666666667	0
bin	-0.13333333333333	0
bin	-0.1	0
bin	-0.066666666666667	0
bin	-0.033333333333333	0
bin	0	0
bin	0.033333333333333	0
bin	0.066666666666667	0
bin	0.1	0
bin	0.13333333333333	0
bin	0.16666666666667	0
bin	0.2	0
bin	0.23333333333333	0
bin	0.26666666666667	0
bin	0.3	0
bin	0.33333333333333	0
bin	0.36666666666667	0
bin	0.4	0
bin	0.43333333333333	0
bin	0.46666666666667	0
bin	0.5	0
statistic scenarioPRJP1.node[23].wlan.radio 	packetErrorRate:histogram
field count 20286
field mean 0.074945717745878
field stddev 0.25592141863056
field sum 1520.3488301929
field sqrsum 1442.5253797469
field min 0
field max 1
attr source  packetErrorRate
attr title  "Packet error rate, histogram"
bin	-INF	0
bin	-0.5	0
bin	-0.43333333333333	0
bin	-0.36666666666667	0
bin	-0.3	0
bin	-0.23333333333333	0
bin	-0.16666666666667	0
bin	-0.1	0
bin	-0.033333333333333	18461
bin	0.033333333333333	119
bin	0.1	61
bin	0.16666666666667	39
bin	0.23333333333333	35
bin	0.3	25
bin	0.36666666666667	28
bin	0.43333333333333	22
bin	0.5	19
bin	0.56666666666667	23
bin	0.63333333333333	18
bin	0.7	28
bin	0.76666666666667	21
bin	0.83333333333333	25
bin	0.9	44
bin	0.96666666666667	1318
bin	1.0333333333333	0
bin	1.1	0
bin	1.1666666666667	0
bin	1.2333333333333	0
bin	1.3	0
bin	1.3666666666667	0
bin	1.4333333333333	0
bin	1.5	0
statistic scenarioPRJP1.node[23].wlan.radio 	minSNIR:histogram
field count 20286
field mean 8963.1739167976
field stddev 68195.252303219
field sum 181826946.07616
field sqrsum 95967014118895
field min 0.00017541264760572
field max 786844.78349836
attr source  minSNIR
attr title  "Min SNIR, histogram"
bin	-INF	0
bin	-375559.02651357	0
bin	-325484.4896217	0
bin	-275409.95272984	0
bin	-225335.41583797	0
bin	-175260.87894611	0
bin	-125186.34205425	0
bin	-75111.805162383	0
bin	-25037.268270519	19715
bin	25037.268621345	229
bin	75111.805513208	70
bin	125186.34240507	24
bin	175260.87929694	35
bin	225335.4161888	7
bin	275409.95308066	11
bin	325484.48997253	9
bin	375559.02686439	4
bin	425633.56375626	6
bin	475708.10064812	5
bin	525782.63753998	6
bin	575857.17443185	8
bin	625931.71132371	26
bin	676006.24821558	23
bin	726080.78510744	107
bin	776155.3219993	1
bin	826229.85889117	0
bin	876304.39578303	0
bin	926378.93267489	0
bin	976453.46956676	0
bin	1026528.0064586	0
bin	1076602.5433505	0
bin	1126677.0802423	0
scalar scenarioPRJP1.node[23].lo0.lo 	droppedPkBitError:count 	0
attr interpolationmode  none
attr source  dropPkBitError
attr title  "packets dropped/bit error, count"
scalar scenarioPRJP1.node[23].lo0.lo 	droppedPkBitError:sum(packetBytes) 	0
attr interpolationmode  none
attr source  dropPkBitError
attr title  "packets dropped/bit error, sum(packetBytes)"
scalar scenarioPRJP1.node[23].lo0.lo 	rcvdPkFromHL:count 	0
attr interpolationmode  none
attr source  packetReceivedFromUpper
attr title  "packets received from higher layer, count"
scalar scenarioPRJP1.node[23].lo0.lo 	rcvdPkFromHL:sum(packetBytes) 	0
attr interpolationmode  none
attr source  packetReceivedFromUpper
attr title  "packets received from higher layer, sum(packetBytes)"
scalar scenarioPRJP1.node[23].lo0.lo 	passedUpPk:count 	0
attr interpolationmode  none
attr source  packetSentToUpper
attr title  "packets passed to higher layer, count"
scalar scenarioPRJP1.node[23].lo0.lo 	passedUpPk:sum(packetBytes) 	0
attr interpolationmode  none
attr source  packetSentToUpper
attr title  "packets passed to higher layer, sum(packetBytes)"
