version 2
run AODVRouting-FS-100n-9-20150727-22:45:35-6088
attr configname AODVRouting-FS-100n
attr datetime 20150727-22:45:35
attr experiment AODVRouting-FS-100n
attr inifile omnetpp.ini
attr iterationvars ""
attr iterationvars2 $repetition=9
attr measurement ""
attr network Prj_Part1_propag.scenarioPRJP1
attr processid 6088
attr repetition 9
attr replication #9
attr resultdir results
attr runnumber 9
attr seedset 9

scalar scenarioPRJP1.node[63].app 	"Total sent" 	197
scalar scenarioPRJP1.node[63].app 	"Total received" 	20
scalar scenarioPRJP1.node[63].app 	"Total deleted" 	0
scalar scenarioPRJP1.node[63].app 	outOfOrderPk:count 	0
attr interpolationmode  none
attr source  outOfOrderPk
attr title  "packets received out of order, count"
scalar scenarioPRJP1.node[63].app 	outOfOrderPk:sum(packetBytes) 	0
attr interpolationmode  none
attr source  outOfOrderPk
attr title  "packets received out of order, sum(packetBytes)"
scalar scenarioPRJP1.node[63].app 	dropPk:count 	0
attr interpolationmode  none
attr source  dropPk
attr title  "packets dropped, count"
scalar scenarioPRJP1.node[63].app 	dropPk:sum(packetBytes) 	0
attr interpolationmode  none
attr source  dropPk
attr title  "packets dropped, sum(packetBytes)"
scalar scenarioPRJP1.node[63].app 	sentPk:count 	197
attr interpolationmode  none
attr source  sentPk
attr title  "packets sent, count"
scalar scenarioPRJP1.node[63].app 	sentPk:sum(packetBytes) 	100864
attr interpolationmode  none
attr source  sentPk
attr title  "packets sent, sum(packetBytes)"
scalar scenarioPRJP1.node[63].app 	rcvdPk:count 	20
attr interpolationmode  none
attr source  rcvdPk
attr title  "packets received, count"
scalar scenarioPRJP1.node[63].app 	rcvdPk:sum(packetBytes) 	10240
attr interpolationmode  none
attr source  rcvdPk
attr title  "packets received, sum(packetBytes)"
statistic scenarioPRJP1.node[63].app 	endToEndDelay:histogram
field count 20
field mean 0.9680521185523
field stddev 2.5454584605469
field sum 19.361042371046
field sqrsum 141.8503147977
field min 0.001010098625
field max 10.460727524777
attr interpolationmode  none
attr source  messageAge(rcvdPk)
attr title  "delay, histogram"
attr unit  s
bin	-INF	0
bin	-5.228848614451	0
bin	-4.5315341193742	0
bin	-3.8342196242974	0
bin	-3.1369051292206	0
bin	-2.4395906341438	0
bin	-1.742276139067	0
bin	-1.0449616439902	0
bin	-0.3476471489134	15
bin	0.3496673461634	2
bin	1.0469818412402	0
bin	1.744296336317	1
bin	2.4416108313938	0
bin	3.1389253264706	0
bin	3.8362398215474	0
bin	4.5335543166242	1
bin	5.230868811701	0
bin	5.9281833067778	0
bin	6.6254978018546	0
bin	7.3228122969314	0
bin	8.0201267920082	0
bin	8.717441287085	0
bin	9.4147557821618	0
bin	10.112070277239	1
bin	10.809384772315	0
bin	11.506699267392	0
bin	12.204013762469	0
bin	12.901328257546	0
bin	13.598642752623	0
bin	14.295957247699	0
bin	14.993271742776	0
bin	15.690586237853	0
scalar scenarioPRJP1.node[63].udp 	droppedPkBadChecksum:count 	0
attr interpolationmode  none
attr title  "packets dropped (checksum error), count"
scalar scenarioPRJP1.node[63].udp 	droppedPkWrongPort:count 	0
attr interpolationmode  none
attr title  "packets dropped (wrong port), count"
scalar scenarioPRJP1.node[63].udp 	passedUpPk:count 	20
attr interpolationmode  none
attr title  "packets passed up, count"
scalar scenarioPRJP1.node[63].udp 	sentPk:count 	197
attr interpolationmode  none
attr source  sentPk
attr title  "packets sent, count"
scalar scenarioPRJP1.node[63].udp 	sentPk:sum(packetBytes) 	102440
attr interpolationmode  none
attr source  sentPk
attr title  "packets sent, sum(packetBytes)"
scalar scenarioPRJP1.node[63].udp 	rcvdPk:count 	20
attr interpolationmode  none
attr source  rcvdPk
attr title  "packets received, count"
scalar scenarioPRJP1.node[63].udp 	rcvdPk:sum(packetBytes) 	10400
attr interpolationmode  none
attr source  rcvdPk
attr title  "packets received, sum(packetBytes)"
scalar scenarioPRJP1.node[63].networkLayer.arp 	sentReply:count 	11
attr title  "ARP replies sent, count"
scalar scenarioPRJP1.node[63].networkLayer.arp 	sentReq:count 	9
attr title  "ARP request sent, count"
scalar scenarioPRJP1.node[63].networkLayer.arp 	failedARPResolution:count 	0
attr title  "ARP failed resolutions, count"
scalar scenarioPRJP1.node[63].networkLayer.arp 	completedARPResolution:count 	104
attr title  "ARP completed resolutions, count"
scalar scenarioPRJP1.node[63].networkLayer.arp 	initiatedARPResolution:count 	7
attr title  "ARP initiated resolutions, count"
scalar scenarioPRJP1.node[63].mobility 	startTime 	7.3
scalar scenarioPRJP1.node[63].mobility 	totalTime 	90.7
scalar scenarioPRJP1.node[63].mobility 	stopTime 	98.1
scalar scenarioPRJP1.node[63].mobility 	minSpeed 	0.26915588072082
scalar scenarioPRJP1.node[63].mobility 	maxSpeed 	21.228191812016
scalar scenarioPRJP1.node[63].mobility 	totalDistance 	1481.2694820694
scalar scenarioPRJP1.node[63].mobility 	totalCO2Emission 	403.92117076182
scalar scenarioPRJP1.node[63].wlan[0].mgmt 	dropPkByQueue:count 	0
attr interpolationmode  none
attr source  dropPkByQueue
attr title  "packets dropped by queue, count"
scalar scenarioPRJP1.node[63].wlan[0].mgmt 	dropPkByQueue:sum(packetBytes) 	0
attr interpolationmode  none
attr source  dropPkByQueue
attr title  "packets dropped by queue, sum(packetBytes)"
scalar scenarioPRJP1.node[63].wlan[0].mgmt 	dataQueueLen:max 	0
attr interpolationmode  sample-hold
attr title  "data queue length, max"
scalar scenarioPRJP1.node[63].wlan[0].mgmt 	dataQueueLen:timeavg 	0
attr interpolationmode  sample-hold
attr title  "data queue length, timeavg"
scalar scenarioPRJP1.node[63].wlan[0].mac 	"number of received packets" 	180
scalar scenarioPRJP1.node[63].wlan[0].mac 	"number of collisions" 	1206
scalar scenarioPRJP1.node[63].wlan[0].mac 	"number of internal collisions" 	0
scalar scenarioPRJP1.node[63].wlan[0].mac 	"number of retry for AC 0" 	226
scalar scenarioPRJP1.node[63].wlan[0].mac 	"number of retry for AC 1" 	0
scalar scenarioPRJP1.node[63].wlan[0].mac 	"number of retry for AC 2" 	0
scalar scenarioPRJP1.node[63].wlan[0].mac 	"number of retry for AC 3" 	0
scalar scenarioPRJP1.node[63].wlan[0].mac 	"sent and received bits" 	1029216
scalar scenarioPRJP1.node[63].wlan[0].mac 	"sent packet within AC 0" 	53
scalar scenarioPRJP1.node[63].wlan[0].mac 	"sent packet within AC 1" 	0
scalar scenarioPRJP1.node[63].wlan[0].mac 	"sent packet within AC 2" 	0
scalar scenarioPRJP1.node[63].wlan[0].mac 	"sent packet within AC 3" 	0
scalar scenarioPRJP1.node[63].wlan[0].mac 	"sent in TXOP " 	0
scalar scenarioPRJP1.node[63].wlan[0].mac 	"sentWithoutRetry AC 0" 	47
scalar scenarioPRJP1.node[63].wlan[0].mac 	"sentWithoutRetry AC 1" 	0
scalar scenarioPRJP1.node[63].wlan[0].mac 	"sentWithoutRetry AC 2" 	0
scalar scenarioPRJP1.node[63].wlan[0].mac 	"sentWithoutRetry AC 3" 	0
scalar scenarioPRJP1.node[63].wlan[0].mac 	"numGivenUp AC 0" 	35
scalar scenarioPRJP1.node[63].wlan[0].mac 	"numGivenUp AC 1" 	0
scalar scenarioPRJP1.node[63].wlan[0].mac 	"numGivenUp AC 2" 	0
scalar scenarioPRJP1.node[63].wlan[0].mac 	"numGivenUp AC 3" 	0
scalar scenarioPRJP1.node[63].wlan[0].mac 	"numDropped AC 0" 	0
scalar scenarioPRJP1.node[63].wlan[0].mac 	"numDropped AC 1" 	0
scalar scenarioPRJP1.node[63].wlan[0].mac 	"numDropped AC 2" 	0
scalar scenarioPRJP1.node[63].wlan[0].mac 	"numDropped AC 3" 	0
scalar scenarioPRJP1.node[63].wlan[0].mac 	rcvdPkFromHL:count 	1324
attr interpolationmode  none
attr source  packetReceivedFromUpper
attr title  "packets received from higher layer, count"
scalar scenarioPRJP1.node[63].wlan[0].mac 	rcvdPkFromHL:sum(packetBytes) 	141804
attr interpolationmode  none
attr source  packetReceivedFromUpper
attr title  "packets received from higher layer, sum(packetBytes)"
scalar scenarioPRJP1.node[63].wlan[0].mac 	passedUpPk:count 	7339
attr interpolationmode  none
attr source  packetSentToUpper
attr title  "packets passed to higher layer, count"
scalar scenarioPRJP1.node[63].wlan[0].mac 	passedUpPk:sum(packetBytes) 	665916
attr interpolationmode  none
attr source  packetSentToUpper
attr title  "packets passed to higher layer, sum(packetBytes)"
scalar scenarioPRJP1.node[63].wlan[0].mac 	rcvdPkFromLL:count 	11433
attr interpolationmode  none
attr source  packetReceivedFromLower
attr title  "packets received from lower layer, count"
scalar scenarioPRJP1.node[63].wlan[0].mac 	rcvdPkFromLL:sum(packetBytes) 	1521064
attr interpolationmode  none
attr source  packetReceivedFromLower
attr title  "packets received from lower layer, sum(packetBytes)"
scalar scenarioPRJP1.node[63].wlan[0].mac 	sentDownPk:count 	1730
attr interpolationmode  none
attr source  packetSentToLower
attr title  "packets sent to lower layer, count"
scalar scenarioPRJP1.node[63].wlan[0].mac 	sentDownPk:sum(packetBytes) 	231448
attr interpolationmode  none
attr source  packetSentToLower
attr title  "packets sent to lower layer, sum(packetBytes)"
statistic scenarioPRJP1.node[63].wlan[0].radio 	symbolErrorRate:histogram
field count 0
field mean nan
field stddev nan
field sum 0
field sqrsum 0
field min nan
field max nan
attr source  symbolErrorRate
attr title  "Symbol error rate, histogram"
bin	-INF	0
bin	-0.5	0
bin	-0.46666666666667	0
bin	-0.43333333333333	0
bin	-0.4	0
bin	-0.36666666666667	0
bin	-0.33333333333333	0
bin	-0.3	0
bin	-0.26666666666667	0
bin	-0.23333333333333	0
bin	-0.2	0
bin	-0.16666666666667	0
bin	-0.13333333333333	0
bin	-0.1	0
bin	-0.066666666666667	0
bin	-0.033333333333333	0
bin	-6.9388939039072e-018	0
bin	0.033333333333333	0
bin	0.066666666666667	0
bin	0.1	0
bin	0.13333333333333	0
bin	0.16666666666667	0
bin	0.2	0
bin	0.23333333333333	0
bin	0.26666666666667	0
bin	0.3	0
bin	0.33333333333333	0
bin	0.36666666666667	0
bin	0.4	0
bin	0.43333333333333	0
bin	0.46666666666667	0
bin	0.5	0
statistic scenarioPRJP1.node[63].wlan[0].radio 	bitErrorRate:histogram
field count 0
field mean nan
field stddev nan
field sum 0
field sqrsum 0
field min nan
field max nan
attr source  bitErrorRate
attr title  "Bit error rate, histogram"
bin	-INF	0
bin	-0.5	0
bin	-0.46666666666667	0
bin	-0.43333333333333	0
bin	-0.4	0
bin	-0.36666666666667	0
bin	-0.33333333333333	0
bin	-0.3	0
bin	-0.26666666666667	0
bin	-0.23333333333333	0
bin	-0.2	0
bin	-0.16666666666667	0
bin	-0.13333333333333	0
bin	-0.1	0
bin	-0.066666666666667	0
bin	-0.033333333333333	0
bin	-6.9388939039072e-018	0
bin	0.033333333333333	0
bin	0.066666666666667	0
bin	0.1	0
bin	0.13333333333333	0
bin	0.16666666666667	0
bin	0.2	0
bin	0.23333333333333	0
bin	0.26666666666667	0
bin	0.3	0
bin	0.33333333333333	0
bin	0.36666666666667	0
bin	0.4	0
bin	0.43333333333333	0
bin	0.46666666666667	0
bin	0.5	0
statistic scenarioPRJP1.node[63].wlan[0].radio 	packetErrorRate:histogram
field count 11433
field mean 0.082526533315034
field stddev 0.26627834098591
field sum 943.52585539078
field sqrsum 888.44221650617
field min 0
field max 1
attr source  packetErrorRate
attr title  "Packet error rate, histogram"
bin	-INF	0
bin	-0.00044534118870121	0
bin	-0.00038596236354105	0
bin	-0.00032658353838089	0
bin	-0.00026720471322073	0
bin	-0.00020782588806056	0
bin	-0.0001484470629004	0
bin	-8.9068237740242e-005	0
bin	-2.9689412580081e-005	9550
bin	2.9689412580081e-005	122
bin	8.9068237740242e-005	41
bin	0.0001484470629004	30
bin	0.00020782588806056	17
bin	0.00026720471322073	23
bin	0.00032658353838089	16
bin	0.00038596236354105	8
bin	0.00044534118870121	8
bin	0.00050472001386137	5
bin	0.00056409883902153	7
bin	0.00062347766418169	8
bin	0.00068285648934185	9
bin	0.00074223531450202	5
bin	0.00080161413966218	5
bin	0.00086099296482234	7
bin	0.0009203717899825	5
bin	0.00097975061514266	7
bin	0.0010391294403028	3
bin	0.001098508265463	9
bin	0.0011578870906231	6
bin	0.0012172659157833	3
bin	0.0012766447409435	7
bin	0.0013360235661036	1532
statistic scenarioPRJP1.node[63].wlan[0].radio 	minSNIR:histogram
field count 11433
field mean 1404.7398736562
field stddev 14298.360074047
field sum 16060390.975511
field sqrsum 2359754200016.6
field min 0.0028963021506691
field max 649651.79831912
attr source  minSNIR
attr title  "Min SNIR, histogram"
bin	-INF	0
bin	-2902.2395226099	0
bin	-2514.4408408635	0
bin	-2126.642159117	0
bin	-1738.8434773706	0
bin	-1351.0447956242	0
bin	-963.24611387773	0
bin	-575.44743213129	0
bin	-187.64875038485	8825
bin	200.14993136159	1165
bin	587.94861310803	356
bin	975.74729485447	192
bin	1363.5459766009	109
bin	1751.3446583473	71
bin	2139.1433400938	62
bin	2526.9420218402	72
bin	2914.7407035867	46
bin	3302.5393853331	29
bin	3690.3380670795	48
bin	4078.136748826	37
bin	4465.9354305724	30
bin	4853.7341123189	20
bin	5241.5327940653	14
bin	5629.3314758117	15
bin	6017.1301575582	20
bin	6404.9288393046	19
bin	6792.7275210511	9
bin	7180.5262027975	16
bin	7568.3248845439	8
bin	7956.1235662904	9
bin	8343.9222480368	7
bin	8731.7209297833	254
scalar scenarioPRJP1.node[63].wlan[0].radio 	transmissionState:count 	6920
attr interpolationmode  sample-hold
attr source  transmissionStateChanged
attr title  "Radio transmission state, count"
scalar scenarioPRJP1.node[63].wlan[0].radio 	receptionState:count 	26536
attr interpolationmode  sample-hold
attr source  receptionStateChanged
attr title  "Radio reception state, count"
scalar scenarioPRJP1.node[63].wlan[0].radio 	radioMode:count 	3462
attr interpolationmode  sample-hold
attr source  radioModeChanged
attr title  "Radio mode, count"
statistic scenarioPRJP1.node[63].wlan[0].radio 	radioChannel:histogram
field count 1
field mean 3
field stddev nan
field sum 3
field sqrsum 9
field min 3
field max 3
attr interpolationmode  sample-hold
attr source  radioChannelChanged
attr title  "Radio channel, histogram"
bin	-INF	0
bin	2	0
bin	3	1
bin	4	0
scalar scenarioPRJP1.node[63].lo0.lo 	droppedPkBitError:count 	0
attr interpolationmode  none
attr source  dropPkBitError
attr title  "packets dropped/bit error, count"
scalar scenarioPRJP1.node[63].lo0.lo 	droppedPkBitError:sum(packetBytes) 	0
attr interpolationmode  none
attr source  dropPkBitError
attr title  "packets dropped/bit error, sum(packetBytes)"
scalar scenarioPRJP1.node[63].lo0.lo 	rcvdPkFromHL:count 	0
attr interpolationmode  none
attr source  packetReceivedFromUpper
attr title  "packets received from higher layer, count"
scalar scenarioPRJP1.node[63].lo0.lo 	rcvdPkFromHL:sum(packetBytes) 	0
attr interpolationmode  none
attr source  packetReceivedFromUpper
attr title  "packets received from higher layer, sum(packetBytes)"
scalar scenarioPRJP1.node[63].lo0.lo 	passedUpPk:count 	0
attr interpolationmode  none
attr source  packetSentToUpper
attr title  "packets passed to higher layer, count"
scalar scenarioPRJP1.node[63].lo0.lo 	passedUpPk:sum(packetBytes) 	0
attr interpolationmode  none
attr source  packetSentToUpper
attr title  "packets passed to higher layer, sum(packetBytes)"
scalar scenarioPRJP1.node[99].app 	"Total sent" 	367
scalar scenarioPRJP1.node[99].app 	"Total received" 	14
scalar scenarioPRJP1.node[99].app 	"Total deleted" 	0
scalar scenarioPRJP1.node[99].app 	outOfOrderPk:count 	0
attr interpolationmode  none
attr source  outOfOrderPk
attr title  "packets received out of order, count"
scalar scenarioPRJP1.node[99].app 	outOfOrderPk:sum(packetBytes) 	0
attr interpolationmode  none
attr source  outOfOrderPk
attr title  "packets received out of order, sum(packetBytes)"
scalar scenarioPRJP1.node[99].app 	dropPk:count 	0
attr interpolationmode  none
attr source  dropPk
attr title  "packets dropped, count"
scalar scenarioPRJP1.node[99].app 	dropPk:sum(packetBytes) 	0
attr interpolationmode  none
attr source  dropPk
attr title  "packets dropped, sum(packetBytes)"
scalar scenarioPRJP1.node[99].app 	sentPk:count 	367
attr interpolationmode  none
attr source  sentPk
attr title  "packets sent, count"
scalar scenarioPRJP1.node[99].app 	sentPk:sum(packetBytes) 	187904
attr interpolationmode  none
attr source  sentPk
attr title  "packets sent, sum(packetBytes)"
scalar scenarioPRJP1.node[99].app 	rcvdPk:count 	14
attr interpolationmode  none
attr source  rcvdPk
attr title  "packets received, count"
scalar scenarioPRJP1.node[99].app 	rcvdPk:sum(packetBytes) 	7168
attr interpolationmode  none
attr source  rcvdPk
attr title  "packets received, sum(packetBytes)"
statistic scenarioPRJP1.node[99].app 	endToEndDelay:histogram
field count 14
field mean 2.6498325036161
field stddev 6.1674066318107
field sum 37.097655050626
field sqrsum 592.78233146843
field min 0.001049554201
field max 17.640646855879
attr interpolationmode  none
attr source  messageAge(rcvdPk)
attr title  "delay, histogram"
attr unit  s
bin	-INF	0
bin	-8.818749096638	0
bin	-7.6427759431928	0
bin	-6.4668027897476	0
bin	-5.2908296363024	0
bin	-4.1148564828572	0
bin	-2.938883329412	0
bin	-1.7629101759668	0
bin	-0.5869370225216	10
bin	0.5890361309236	2
bin	1.7650092843688	0
bin	2.940982437814	0
bin	4.1169555912592	0
bin	5.2929287447044	0
bin	6.4689018981496	0
bin	7.6448750515948	0
bin	8.82084820504	0
bin	9.9968213584852	0
bin	11.17279451193	0
bin	12.348767665376	0
bin	13.524740818821	0
bin	14.700713972266	0
bin	15.876687125711	1
bin	17.052660279156	1
bin	18.228633432602	0
bin	19.404606586047	0
bin	20.580579739492	0
bin	21.756552892937	0
bin	22.932526046382	0
bin	24.108499199828	0
bin	25.284472353273	0
bin	26.460445506718	0
scalar scenarioPRJP1.node[99].udp 	droppedPkBadChecksum:count 	0
attr interpolationmode  none
attr title  "packets dropped (checksum error), count"
scalar scenarioPRJP1.node[99].udp 	droppedPkWrongPort:count 	0
attr interpolationmode  none
attr title  "packets dropped (wrong port), count"
scalar scenarioPRJP1.node[99].udp 	passedUpPk:count 	14
attr interpolationmode  none
attr title  "packets passed up, count"
scalar scenarioPRJP1.node[99].udp 	sentPk:count 	367
attr interpolationmode  none
attr source  sentPk
attr title  "packets sent, count"
scalar scenarioPRJP1.node[99].udp 	sentPk:sum(packetBytes) 	190840
attr interpolationmode  none
attr source  sentPk
attr title  "packets sent, sum(packetBytes)"
scalar scenarioPRJP1.node[99].udp 	rcvdPk:count 	14
attr interpolationmode  none
attr source  rcvdPk
attr title  "packets received, count"
scalar scenarioPRJP1.node[99].udp 	rcvdPk:sum(packetBytes) 	7280
attr interpolationmode  none
attr source  rcvdPk
attr title  "packets received, sum(packetBytes)"
scalar scenarioPRJP1.node[99].networkLayer.arp 	sentReply:count 	5
attr title  "ARP replies sent, count"
scalar scenarioPRJP1.node[99].networkLayer.arp 	sentReq:count 	20
attr title  "ARP request sent, count"
scalar scenarioPRJP1.node[99].networkLayer.arp 	failedARPResolution:count 	1
attr title  "ARP failed resolutions, count"
scalar scenarioPRJP1.node[99].networkLayer.arp 	completedARPResolution:count 	55
attr title  "ARP completed resolutions, count"
scalar scenarioPRJP1.node[99].networkLayer.arp 	initiatedARPResolution:count 	15
attr title  "ARP initiated resolutions, count"
scalar scenarioPRJP1.node[99].mobility 	startTime 	9.9
scalar scenarioPRJP1.node[99].mobility 	totalTime 	149.1
scalar scenarioPRJP1.node[99].mobility 	stopTime 	159.1
scalar scenarioPRJP1.node[99].mobility 	minSpeed 	2.4758626743077e-013
scalar scenarioPRJP1.node[99].mobility 	maxSpeed 	19.036931346541
scalar scenarioPRJP1.node[99].mobility 	totalDistance 	1483.3435608295
scalar scenarioPRJP1.node[99].mobility 	totalCO2Emission 	463.28393456654
scalar scenarioPRJP1.node[99].wlan[0].mgmt 	dropPkByQueue:count 	0
attr interpolationmode  none
attr source  dropPkByQueue
attr title  "packets dropped by queue, count"
scalar scenarioPRJP1.node[99].wlan[0].mgmt 	dropPkByQueue:sum(packetBytes) 	0
attr interpolationmode  none
attr source  dropPkByQueue
attr title  "packets dropped by queue, sum(packetBytes)"
scalar scenarioPRJP1.node[99].wlan[0].mgmt 	dataQueueLen:max 	2
attr interpolationmode  sample-hold
attr title  "data queue length, max"
scalar scenarioPRJP1.node[99].wlan[0].mgmt 	dataQueueLen:timeavg 	0
attr interpolationmode  sample-hold
attr title  "data queue length, timeavg"
scalar scenarioPRJP1.node[99].wlan[0].mac 	"number of received packets" 	274
scalar scenarioPRJP1.node[99].wlan[0].mac 	"number of collisions" 	1455
scalar scenarioPRJP1.node[99].wlan[0].mac 	"number of internal collisions" 	0
scalar scenarioPRJP1.node[99].wlan[0].mac 	"number of retry for AC 0" 	438
scalar scenarioPRJP1.node[99].wlan[0].mac 	"number of retry for AC 1" 	0
scalar scenarioPRJP1.node[99].wlan[0].mac 	"number of retry for AC 2" 	0
scalar scenarioPRJP1.node[99].wlan[0].mac 	"number of retry for AC 3" 	0
scalar scenarioPRJP1.node[99].wlan[0].mac 	"sent and received bits" 	1595872
scalar scenarioPRJP1.node[99].wlan[0].mac 	"sent packet within AC 0" 	34
scalar scenarioPRJP1.node[99].wlan[0].mac 	"sent packet within AC 1" 	0
scalar scenarioPRJP1.node[99].wlan[0].mac 	"sent packet within AC 2" 	0
scalar scenarioPRJP1.node[99].wlan[0].mac 	"sent packet within AC 3" 	0
scalar scenarioPRJP1.node[99].wlan[0].mac 	"sent in TXOP " 	0
scalar scenarioPRJP1.node[99].wlan[0].mac 	"sentWithoutRetry AC 0" 	34
scalar scenarioPRJP1.node[99].wlan[0].mac 	"sentWithoutRetry AC 1" 	0
scalar scenarioPRJP1.node[99].wlan[0].mac 	"sentWithoutRetry AC 2" 	0
scalar scenarioPRJP1.node[99].wlan[0].mac 	"sentWithoutRetry AC 3" 	0
scalar scenarioPRJP1.node[99].wlan[0].mac 	"numGivenUp AC 0" 	73
scalar scenarioPRJP1.node[99].wlan[0].mac 	"numGivenUp AC 1" 	0
scalar scenarioPRJP1.node[99].wlan[0].mac 	"numGivenUp AC 2" 	0
scalar scenarioPRJP1.node[99].wlan[0].mac 	"numGivenUp AC 3" 	0
scalar scenarioPRJP1.node[99].wlan[0].mac 	"numDropped AC 0" 	0
scalar scenarioPRJP1.node[99].wlan[0].mac 	"numDropped AC 1" 	0
scalar scenarioPRJP1.node[99].wlan[0].mac 	"numDropped AC 2" 	0
scalar scenarioPRJP1.node[99].wlan[0].mac 	"numDropped AC 3" 	0
scalar scenarioPRJP1.node[99].wlan[0].mac 	rcvdPkFromHL:count 	2188
attr interpolationmode  none
attr source  packetReceivedFromUpper
attr title  "packets received from higher layer, count"
scalar scenarioPRJP1.node[99].wlan[0].mac 	rcvdPkFromHL:sum(packetBytes) 	228168
attr interpolationmode  none
attr source  packetReceivedFromUpper
attr title  "packets received from higher layer, sum(packetBytes)"
scalar scenarioPRJP1.node[99].wlan[0].mac 	passedUpPk:count 	8553
attr interpolationmode  none
attr source  packetSentToUpper
attr title  "packets passed to higher layer, count"
scalar scenarioPRJP1.node[99].wlan[0].mac 	passedUpPk:sum(packetBytes) 	776588
attr interpolationmode  none
attr source  packetSentToUpper
attr title  "packets passed to higher layer, sum(packetBytes)"
scalar scenarioPRJP1.node[99].wlan[0].mac 	rcvdPkFromLL:count 	13125
attr interpolationmode  none
attr source  packetReceivedFromLower
attr title  "packets received from lower layer, count"
scalar scenarioPRJP1.node[99].wlan[0].mac 	rcvdPkFromLL:sum(packetBytes) 	1779904
attr interpolationmode  none
attr source  packetReceivedFromLower
attr title  "packets received from lower layer, sum(packetBytes)"
scalar scenarioPRJP1.node[99].wlan[0].mac 	sentDownPk:count 	2900
attr interpolationmode  none
attr source  packetSentToLower
attr title  "packets sent to lower layer, count"
scalar scenarioPRJP1.node[99].wlan[0].mac 	sentDownPk:sum(packetBytes) 	404108
attr interpolationmode  none
attr source  packetSentToLower
attr title  "packets sent to lower layer, sum(packetBytes)"
statistic scenarioPRJP1.node[99].wlan[0].radio 	symbolErrorRate:histogram
field count 0
field mean nan
field stddev nan
field sum 0
field sqrsum 0
field min nan
field max nan
attr source  symbolErrorRate
attr title  "Symbol error rate, histogram"
bin	-INF	0
bin	-0.5	0
bin	-0.46666666666667	0
bin	-0.43333333333333	0
bin	-0.4	0
bin	-0.36666666666667	0
bin	-0.33333333333333	0
bin	-0.3	0
bin	-0.26666666666667	0
bin	-0.23333333333333	0
bin	-0.2	0
bin	-0.16666666666667	0
bin	-0.13333333333333	0
bin	-0.1	0
bin	-0.066666666666667	0
bin	-0.033333333333333	0
bin	-6.9388939039072e-018	0
bin	0.033333333333333	0
bin	0.066666666666667	0
bin	0.1	0
bin	0.13333333333333	0
bin	0.16666666666667	0
bin	0.2	0
bin	0.23333333333333	0
bin	0.26666666666667	0
bin	0.3	0
bin	0.33333333333333	0
bin	0.36666666666667	0
bin	0.4	0
bin	0.43333333333333	0
bin	0.46666666666667	0
bin	0.5	0
statistic scenarioPRJP1.node[99].wlan[0].radio 	bitErrorRate:histogram
field count 0
field mean nan
field stddev nan
field sum 0
field sqrsum 0
field min nan
field max nan
attr source  bitErrorRate
attr title  "Bit error rate, histogram"
bin	-INF	0
bin	-0.5	0
bin	-0.46666666666667	0
bin	-0.43333333333333	0
bin	-0.4	0
bin	-0.36666666666667	0
bin	-0.33333333333333	0
bin	-0.3	0
bin	-0.26666666666667	0
bin	-0.23333333333333	0
bin	-0.2	0
bin	-0.16666666666667	0
bin	-0.13333333333333	0
bin	-0.1	0
bin	-0.066666666666667	0
bin	-0.033333333333333	0
bin	-6.9388939039072e-018	0
bin	0.033333333333333	0
bin	0.066666666666667	0
bin	0.1	0
bin	0.13333333333333	0
bin	0.16666666666667	0
bin	0.2	0
bin	0.23333333333333	0
bin	0.26666666666667	0
bin	0.3	0
bin	0.33333333333333	0
bin	0.36666666666667	0
bin	0.4	0
bin	0.43333333333333	0
bin	0.46666666666667	0
bin	0.5	0
statistic scenarioPRJP1.node[99].wlan[0].radio 	packetErrorRate:histogram
field count 13125
field mean 0.083327625720632
field stddev 0.26676790112464
field sum 1093.6750875833
field sqrsum 1025.1042922946
field min 0
field max 1
attr source  packetErrorRate
attr title  "Packet error rate, histogram"
bin	-INF	0
bin	-0.5	0
bin	-0.43333333333333	0
bin	-0.36666666666667	0
bin	-0.3	0
bin	-0.23333333333333	0
bin	-0.16666666666667	0
bin	-0.1	0
bin	-0.033333333333333	11730
bin	0.033333333333333	126
bin	0.1	60
bin	0.16666666666667	49
bin	0.23333333333333	39
bin	0.3	16
bin	0.36666666666667	25
bin	0.43333333333333	18
bin	0.5	17
bin	0.56666666666667	10
bin	0.63333333333333	21
bin	0.7	15
bin	0.76666666666667	12
bin	0.83333333333333	23
bin	0.9	35
bin	0.96666666666667	929
bin	1.0333333333333	0
bin	1.1	0
bin	1.1666666666667	0
bin	1.2333333333333	0
bin	1.3	0
bin	1.3666666666667	0
bin	1.4333333333333	0
bin	1.5	0
statistic scenarioPRJP1.node[99].wlan[0].radio 	minSNIR:histogram
field count 13125
field mean 10052.952367032
field stddev 76774.938158125
field sum 131944999.8173
field sqrsum 78684425977641
field min 0.00039390607924212
field max 753239.71923443
attr source  minSNIR
attr title  "Min SNIR, histogram"
bin	-INF	0
bin	-4953.7431035752	0
bin	-4292.9674923083	0
bin	-3632.1918810415	0
bin	-2971.4162697746	0
bin	-2310.6406585077	0
bin	-1649.8650472409	0
bin	-989.08943597398	0
bin	-328.31382470711	10435
bin	332.46178655976	911
bin	993.23739782663	184
bin	1654.0130090935	130
bin	2314.7886203604	76
bin	2975.5642316272	55
bin	3636.3398428941	53
bin	4297.115454161	143
bin	4957.8910654278	69
bin	5618.6666766947	48
bin	6279.4422879616	59
bin	6940.2178992285	42
bin	7600.9935104953	39
bin	8261.7691217622	36
bin	8922.5447330291	30
bin	9583.3203442959	28
bin	10244.095955563	32
bin	10904.87156683	33
bin	11565.647178097	24
bin	12226.422789363	34
bin	12887.19840063	21
bin	13547.974011897	23
bin	14208.749623164	16
bin	14869.525234431	604
scalar scenarioPRJP1.node[99].wlan[0].radio 	transmissionState:count 	11600
attr interpolationmode  sample-hold
attr source  transmissionStateChanged
attr title  "Radio transmission state, count"
scalar scenarioPRJP1.node[99].wlan[0].radio 	receptionState:count 	32196
attr interpolationmode  sample-hold
attr source  receptionStateChanged
attr title  "Radio reception state, count"
scalar scenarioPRJP1.node[99].wlan[0].radio 	radioMode:count 	5802
attr interpolationmode  sample-hold
attr source  radioModeChanged
attr title  "Radio mode, count"
statistic scenarioPRJP1.node[99].wlan[0].radio 	radioChannel:histogram
field count 1
field mean 3
field stddev nan
field sum 3
field sqrsum 9
field min 3
field max 3
attr interpolationmode  sample-hold
attr source  radioChannelChanged
attr title  "Radio channel, histogram"
bin	-INF	0
bin	2	0
bin	3	1
bin	4	0
scalar scenarioPRJP1.node[99].lo0.lo 	droppedPkBitError:count 	0
attr interpolationmode  none
attr source  dropPkBitError
attr title  "packets dropped/bit error, count"
scalar scenarioPRJP1.node[99].lo0.lo 	droppedPkBitError:sum(packetBytes) 	0
attr interpolationmode  none
attr source  dropPkBitError
attr title  "packets dropped/bit error, sum(packetBytes)"
scalar scenarioPRJP1.node[99].lo0.lo 	rcvdPkFromHL:count 	0
attr interpolationmode  none
attr source  packetReceivedFromUpper
attr title  "packets received from higher layer, count"
scalar scenarioPRJP1.node[99].lo0.lo 	rcvdPkFromHL:sum(packetBytes) 	0
attr interpolationmode  none
attr source  packetReceivedFromUpper
attr title  "packets received from higher layer, sum(packetBytes)"
scalar scenarioPRJP1.node[99].lo0.lo 	passedUpPk:count 	0
attr interpolationmode  none
attr source  packetSentToUpper
attr title  "packets passed to higher layer, count"
scalar scenarioPRJP1.node[99].lo0.lo 	passedUpPk:sum(packetBytes) 	0
attr interpolationmode  none
attr source  packetSentToUpper
attr title  "packets passed to higher layer, sum(packetBytes)"
scalar scenarioPRJP1.node[41].app 	"Total sent" 	365
scalar scenarioPRJP1.node[41].app 	"Total received" 	28
scalar scenarioPRJP1.node[41].app 	"Total deleted" 	2
scalar scenarioPRJP1.node[41].app 	outOfOrderPk:count 	0
attr interpolationmode  none
attr source  outOfOrderPk
attr title  "packets received out of order, count"
scalar scenarioPRJP1.node[41].app 	outOfOrderPk:sum(packetBytes) 	0
attr interpolationmode  none
attr source  outOfOrderPk
attr title  "packets received out of order, sum(packetBytes)"
scalar scenarioPRJP1.node[41].app 	dropPk:count 	2
attr interpolationmode  none
attr source  dropPk
attr title  "packets dropped, count"
scalar scenarioPRJP1.node[41].app 	dropPk:sum(packetBytes) 	1024
attr interpolationmode  none
attr source  dropPk
attr title  "packets dropped, sum(packetBytes)"
scalar scenarioPRJP1.node[41].app 	sentPk:count 	365
attr interpolationmode  none
attr source  sentPk
attr title  "packets sent, count"
scalar scenarioPRJP1.node[41].app 	sentPk:sum(packetBytes) 	186880
attr interpolationmode  none
attr source  sentPk
attr title  "packets sent, sum(packetBytes)"
scalar scenarioPRJP1.node[41].app 	rcvdPk:count 	28
attr interpolationmode  none
attr source  rcvdPk
attr title  "packets received, count"
scalar scenarioPRJP1.node[41].app 	rcvdPk:sum(packetBytes) 	14336
attr interpolationmode  none
attr source  rcvdPk
attr title  "packets received, sum(packetBytes)"
statistic scenarioPRJP1.node[41].app 	endToEndDelay:histogram
field count 28
field mean 0.98154319590964
field stddev 3.3579535967323
field sum 27.48320948547
field sqrsum 331.42397093301
field min 0.000984162389
field max 17.215910800395
attr interpolationmode  none
attr source  messageAge(rcvdPk)
attr title  "delay, histogram"
attr unit  s
bin	-INF	0
bin	-8.606479156614	0
bin	-7.4588173807469	0
bin	-6.3111556048799	0
bin	-5.1634938290128	0
bin	-4.0158320531457	0
bin	-2.8681702772787	0
bin	-1.7205085014116	0
bin	-0.57284672554453	24
bin	0.57481505032253	0
bin	1.7224768261896	1
bin	2.8701386020567	1
bin	4.0178003779237	1
bin	5.1654621537908	0
bin	6.3131239296579	0
bin	7.4607857055249	0
bin	8.608447481392	0
bin	9.7561092572591	0
bin	10.903771033126	0
bin	12.051432808993	0
bin	13.19909458486	0
bin	14.346756360727	0
bin	15.494418136594	0
bin	16.642079912461	1
bin	17.789741688329	0
bin	18.937403464196	0
bin	20.085065240063	0
bin	21.23272701593	0
bin	22.380388791797	0
bin	23.528050567664	0
bin	24.675712343531	0
bin	25.823374119398	0
scalar scenarioPRJP1.node[41].udp 	droppedPkBadChecksum:count 	0
attr interpolationmode  none
attr title  "packets dropped (checksum error), count"
scalar scenarioPRJP1.node[41].udp 	droppedPkWrongPort:count 	0
attr interpolationmode  none
attr title  "packets dropped (wrong port), count"
scalar scenarioPRJP1.node[41].udp 	passedUpPk:count 	30
attr interpolationmode  none
attr title  "packets passed up, count"
scalar scenarioPRJP1.node[41].udp 	sentPk:count 	365
attr interpolationmode  none
attr source  sentPk
attr title  "packets sent, count"
scalar scenarioPRJP1.node[41].udp 	sentPk:sum(packetBytes) 	189800
attr interpolationmode  none
attr source  sentPk
attr title  "packets sent, sum(packetBytes)"
scalar scenarioPRJP1.node[41].udp 	rcvdPk:count 	30
attr interpolationmode  none
attr source  rcvdPk
attr title  "packets received, count"
scalar scenarioPRJP1.node[41].udp 	rcvdPk:sum(packetBytes) 	15600
attr interpolationmode  none
attr source  rcvdPk
attr title  "packets received, sum(packetBytes)"
scalar scenarioPRJP1.node[41].networkLayer.arp 	sentReply:count 	13
attr title  "ARP replies sent, count"
scalar scenarioPRJP1.node[41].networkLayer.arp 	sentReq:count 	16
attr title  "ARP request sent, count"
scalar scenarioPRJP1.node[41].networkLayer.arp 	failedARPResolution:count 	1
attr title  "ARP failed resolutions, count"
scalar scenarioPRJP1.node[41].networkLayer.arp 	completedARPResolution:count 	97
attr title  "ARP completed resolutions, count"
scalar scenarioPRJP1.node[41].networkLayer.arp 	initiatedARPResolution:count 	11
attr title  "ARP initiated resolutions, count"
scalar scenarioPRJP1.node[41].mobility 	startTime 	4.8
scalar scenarioPRJP1.node[41].mobility 	totalTime 	154.3
scalar scenarioPRJP1.node[41].mobility 	stopTime 	159.2
scalar scenarioPRJP1.node[41].mobility 	minSpeed 	2.4760539471002e-013
scalar scenarioPRJP1.node[41].mobility 	maxSpeed 	19.29869047967
scalar scenarioPRJP1.node[41].mobility 	totalDistance 	1483.2346613943
scalar scenarioPRJP1.node[41].mobility 	totalCO2Emission 	483.76552202046
scalar scenarioPRJP1.node[41].wlan[0].mgmt 	dropPkByQueue:count 	0
attr interpolationmode  none
attr source  dropPkByQueue
attr title  "packets dropped by queue, count"
scalar scenarioPRJP1.node[41].wlan[0].mgmt 	dropPkByQueue:sum(packetBytes) 	0
attr interpolationmode  none
attr source  dropPkByQueue
attr title  "packets dropped by queue, sum(packetBytes)"
scalar scenarioPRJP1.node[41].wlan[0].mgmt 	dataQueueLen:max 	2
attr interpolationmode  sample-hold
attr title  "data queue length, max"
scalar scenarioPRJP1.node[41].wlan[0].mgmt 	dataQueueLen:timeavg 	0
attr interpolationmode  sample-hold
attr title  "data queue length, timeavg"
scalar scenarioPRJP1.node[41].wlan[0].mac 	"number of received packets" 	272
scalar scenarioPRJP1.node[41].wlan[0].mac 	"number of collisions" 	1325
scalar scenarioPRJP1.node[41].wlan[0].mac 	"number of internal collisions" 	0
scalar scenarioPRJP1.node[41].wlan[0].mac 	"number of retry for AC 0" 	275
scalar scenarioPRJP1.node[41].wlan[0].mac 	"number of retry for AC 1" 	0
scalar scenarioPRJP1.node[41].wlan[0].mac 	"number of retry for AC 2" 	0
scalar scenarioPRJP1.node[41].wlan[0].mac 	"number of retry for AC 3" 	0
scalar scenarioPRJP1.node[41].wlan[0].mac 	"sent and received bits" 	1436768
scalar scenarioPRJP1.node[41].wlan[0].mac 	"sent packet within AC 0" 	51
scalar scenarioPRJP1.node[41].wlan[0].mac 	"sent packet within AC 1" 	0
scalar scenarioPRJP1.node[41].wlan[0].mac 	"sent packet within AC 2" 	0
scalar scenarioPRJP1.node[41].wlan[0].mac 	"sent packet within AC 3" 	0
scalar scenarioPRJP1.node[41].wlan[0].mac 	"sent in TXOP " 	0
scalar scenarioPRJP1.node[41].wlan[0].mac 	"sentWithoutRetry AC 0" 	46
scalar scenarioPRJP1.node[41].wlan[0].mac 	"sentWithoutRetry AC 1" 	0
scalar scenarioPRJP1.node[41].wlan[0].mac 	"sentWithoutRetry AC 2" 	0
scalar scenarioPRJP1.node[41].wlan[0].mac 	"sentWithoutRetry AC 3" 	0
scalar scenarioPRJP1.node[41].wlan[0].mac 	"numGivenUp AC 0" 	44
scalar scenarioPRJP1.node[41].wlan[0].mac 	"numGivenUp AC 1" 	0
scalar scenarioPRJP1.node[41].wlan[0].mac 	"numGivenUp AC 2" 	0
scalar scenarioPRJP1.node[41].wlan[0].mac 	"numGivenUp AC 3" 	0
scalar scenarioPRJP1.node[41].wlan[0].mac 	"numDropped AC 0" 	0
scalar scenarioPRJP1.node[41].wlan[0].mac 	"numDropped AC 1" 	0
scalar scenarioPRJP1.node[41].wlan[0].mac 	"numDropped AC 2" 	0
scalar scenarioPRJP1.node[41].wlan[0].mac 	"numDropped AC 3" 	0
scalar scenarioPRJP1.node[41].wlan[0].mac 	rcvdPkFromHL:count 	1851
attr interpolationmode  none
attr source  packetReceivedFromUpper
attr title  "packets received from higher layer, count"
scalar scenarioPRJP1.node[41].wlan[0].mac 	rcvdPkFromHL:sum(packetBytes) 	197912
attr interpolationmode  none
attr source  packetReceivedFromUpper
attr title  "packets received from higher layer, sum(packetBytes)"
scalar scenarioPRJP1.node[41].wlan[0].mac 	passedUpPk:count 	11331
attr interpolationmode  none
attr source  packetSentToUpper
attr title  "packets passed to higher layer, count"
scalar scenarioPRJP1.node[41].wlan[0].mac 	passedUpPk:sum(packetBytes) 	1014776
attr interpolationmode  none
attr source  packetSentToUpper
attr title  "packets passed to higher layer, sum(packetBytes)"
scalar scenarioPRJP1.node[41].wlan[0].mac 	rcvdPkFromLL:count 	17282
attr interpolationmode  none
attr source  packetReceivedFromLower
attr title  "packets received from lower layer, count"
scalar scenarioPRJP1.node[41].wlan[0].mac 	rcvdPkFromLL:sum(packetBytes) 	2384182
attr interpolationmode  none
attr source  packetReceivedFromLower
attr title  "packets received from lower layer, sum(packetBytes)"
scalar scenarioPRJP1.node[41].wlan[0].mac 	sentDownPk:count 	2398
attr interpolationmode  none
attr source  packetSentToLower
attr title  "packets sent to lower layer, count"
scalar scenarioPRJP1.node[41].wlan[0].mac 	sentDownPk:sum(packetBytes) 	317952
attr interpolationmode  none
attr source  packetSentToLower
attr title  "packets sent to lower layer, sum(packetBytes)"
statistic scenarioPRJP1.node[41].wlan[0].radio 	symbolErrorRate:histogram
field count 0
field mean nan
field stddev nan
field sum 0
field sqrsum 0
field min nan
field max nan
attr source  symbolErrorRate
attr title  "Symbol error rate, histogram"
bin	-INF	0
bin	-0.5	0
bin	-0.46666666666667	0
bin	-0.43333333333333	0
bin	-0.4	0
bin	-0.36666666666667	0
bin	-0.33333333333333	0
bin	-0.3	0
bin	-0.26666666666667	0
bin	-0.23333333333333	0
bin	-0.2	0
bin	-0.16666666666667	0
bin	-0.13333333333333	0
bin	-0.1	0
bin	-0.066666666666667	0
bin	-0.033333333333333	0
bin	-6.9388939039072e-018	0
bin	0.033333333333333	0
bin	0.066666666666667	0
bin	0.1	0
bin	0.13333333333333	0
bin	0.16666666666667	0
bin	0.2	0
bin	0.23333333333333	0
bin	0.26666666666667	0
bin	0.3	0
bin	0.33333333333333	0
bin	0.36666666666667	0
bin	0.4	0
bin	0.43333333333333	0
bin	0.46666666666667	0
bin	0.5	0
statistic scenarioPRJP1.node[41].wlan[0].radio 	bitErrorRate:histogram
field count 0
field mean nan
field stddev nan
field sum 0
field sqrsum 0
field min nan
field max nan
attr source  bitErrorRate
attr title  "Bit error rate, histogram"
bin	-INF	0
bin	-0.5	0
bin	-0.46666666666667	0
bin	-0.43333333333333	0
bin	-0.4	0
bin	-0.36666666666667	0
bin	-0.33333333333333	0
bin	-0.3	0
bin	-0.26666666666667	0
bin	-0.23333333333333	0
bin	-0.2	0
bin	-0.16666666666667	0
bin	-0.13333333333333	0
bin	-0.1	0
bin	-0.066666666666667	0
bin	-0.033333333333333	0
bin	-6.9388939039072e-018	0
bin	0.033333333333333	0
bin	0.066666666666667	0
bin	0.1	0
bin	0.13333333333333	0
bin	0.16666666666667	0
bin	0.2	0
bin	0.23333333333333	0
bin	0.26666666666667	0
bin	0.3	0
bin	0.33333333333333	0
bin	0.36666666666667	0
bin	0.4	0
bin	0.43333333333333	0
bin	0.46666666666667	0
bin	0.5	0
statistic scenarioPRJP1.node[41].wlan[0].radio 	packetErrorRate:histogram
field count 17282
field mean 0.058925639519021
field stddev 0.22732575210411
field sum 1018.3529021677
field sqrsum 953.03729101824
field min 0
field max 1
attr source  packetErrorRate
attr title  "Packet error rate, histogram"
bin	-INF	1046
bin	-1.1606857697188e-009	0
bin	-1.0059276670897e-009	0
bin	-8.5116956446048e-010	0
bin	-6.964114618313e-010	0
bin	-5.4165335920212e-010	0
bin	-3.8689525657295e-010	0
bin	-2.3213715394377e-010	0
bin	-7.7379051314589e-011	13894
bin	7.7379051314589e-011	93
bin	2.3213715394377e-010	51
bin	3.8689525657295e-010	30
bin	5.4165335920212e-010	21
bin	6.964114618313e-010	16
bin	8.5116956446048e-010	22
bin	1.0059276670897e-009	10
bin	1.1606857697188e-009	9
bin	1.315443872348e-009	16
bin	1.4702019749772e-009	16
bin	1.6249600776064e-009	11
bin	1.7797181802356e-009	9
bin	1.9344762828647e-009	10
bin	2.0892343854939e-009	4
bin	2.2439924881231e-009	8
bin	2.3987505907523e-009	2
bin	2.5535086933814e-009	4
bin	2.7082667960106e-009	8
bin	2.8630248986398e-009	3
bin	3.017783001269e-009	4
bin	3.1725411038982e-009	8
bin	3.3272992065273e-009	3
bin	3.4820573091565e-009	1984
statistic scenarioPRJP1.node[41].wlan[0].radio 	minSNIR:histogram
field count 17282
field mean 3012.6434933507
field stddev 32030.449895813
field sum 52064504.852087
field sqrsum 17886288912225
field min 0.00016924499823256
field max 753239.71807803
attr source  minSNIR
attr title  "Min SNIR, histogram"
bin	-INF	0
bin	-1472.4032417985	0
bin	-1274.8408665907	0
bin	-1077.2784913829	0
bin	-879.71611617507	0
bin	-682.15374096726	0
bin	-484.59136575946	0
bin	-287.02899055165	0
bin	-89.466615343844	10902
bin	108.09575986396	2417
bin	305.65813507177	858
bin	503.22051027957	638
bin	700.78288548738	322
bin	898.34526069518	246
bin	1095.907635903	168
bin	1293.4700111108	159
bin	1491.0323863186	104
bin	1688.5947615264	51
bin	1886.1571367342	76
bin	2083.719511942	58
bin	2281.2818871498	43
bin	2478.8442623576	59
bin	2676.4066375654	46
bin	2873.9690127732	49
bin	3071.531387981	31
bin	3269.0937631889	32
bin	3466.6561383967	25
bin	3664.2185136045	28
bin	3861.7808888123	75
bin	4059.3432640201	45
bin	4256.9056392279	16
bin	4454.4680144357	834
scalar scenarioPRJP1.node[41].wlan[0].radio 	transmissionState:count 	9592
attr interpolationmode  sample-hold
attr source  transmissionStateChanged
attr title  "Radio transmission state, count"
scalar scenarioPRJP1.node[41].wlan[0].radio 	receptionState:count 	39727
attr interpolationmode  sample-hold
attr source  receptionStateChanged
attr title  "Radio reception state, count"
scalar scenarioPRJP1.node[41].wlan[0].radio 	radioMode:count 	4798
attr interpolationmode  sample-hold
attr source  radioModeChanged
attr title  "Radio mode, count"
statistic scenarioPRJP1.node[41].wlan[0].radio 	radioChannel:histogram
field count 1
field mean 3
field stddev nan
field sum 3
field sqrsum 9
field min 3
field max 3
attr interpolationmode  sample-hold
attr source  radioChannelChanged
attr title  "Radio channel, histogram"
bin	-INF	0
bin	2	0
bin	3	1
bin	4	0
scalar scenarioPRJP1.node[41].lo0.lo 	droppedPkBitError:count 	0
attr interpolationmode  none
attr source  dropPkBitError
attr title  "packets dropped/bit error, count"
scalar scenarioPRJP1.node[41].lo0.lo 	droppedPkBitError:sum(packetBytes) 	0
attr interpolationmode  none
attr source  dropPkBitError
attr title  "packets dropped/bit error, sum(packetBytes)"
scalar scenarioPRJP1.node[41].lo0.lo 	rcvdPkFromHL:count 	0
attr interpolationmode  none
attr source  packetReceivedFromUpper
attr title  "packets received from higher layer, count"
scalar scenarioPRJP1.node[41].lo0.lo 	rcvdPkFromHL:sum(packetBytes) 	0
attr interpolationmode  none
attr source  packetReceivedFromUpper
attr title  "packets received from higher layer, sum(packetBytes)"
scalar scenarioPRJP1.node[41].lo0.lo 	passedUpPk:count 	0
attr interpolationmode  none
attr source  packetSentToUpper
attr title  "packets passed to higher layer, count"
scalar scenarioPRJP1.node[41].lo0.lo 	passedUpPk:sum(packetBytes) 	0
attr interpolationmode  none
attr source  packetSentToUpper
attr title  "packets passed to higher layer, sum(packetBytes)"
scalar scenarioPRJP1.node[57].app 	"Total sent" 	371
scalar scenarioPRJP1.node[57].app 	"Total received" 	31
scalar scenarioPRJP1.node[57].app 	"Total deleted" 	3
scalar scenarioPRJP1.node[57].app 	outOfOrderPk:count 	0
attr interpolationmode  none
attr source  outOfOrderPk
attr title  "packets received out of order, count"
scalar scenarioPRJP1.node[57].app 	outOfOrderPk:sum(packetBytes) 	0
attr interpolationmode  none
attr source  outOfOrderPk
attr title  "packets received out of order, sum(packetBytes)"
scalar scenarioPRJP1.node[57].app 	dropPk:count 	3
attr interpolationmode  none
attr source  dropPk
attr title  "packets dropped, count"
scalar scenarioPRJP1.node[57].app 	dropPk:sum(packetBytes) 	1536
attr interpolationmode  none
attr source  dropPk
attr title  "packets dropped, sum(packetBytes)"
scalar scenarioPRJP1.node[57].app 	sentPk:count 	371
attr interpolationmode  none
attr source  sentPk
attr title  "packets sent, count"
scalar scenarioPRJP1.node[57].app 	sentPk:sum(packetBytes) 	189952
attr interpolationmode  none
attr source  sentPk
attr title  "packets sent, sum(packetBytes)"
scalar scenarioPRJP1.node[57].app 	rcvdPk:count 	31
attr interpolationmode  none
attr source  rcvdPk
attr title  "packets received, count"
scalar scenarioPRJP1.node[57].app 	rcvdPk:sum(packetBytes) 	15872
attr interpolationmode  none
attr source  rcvdPk
attr title  "packets received, sum(packetBytes)"
statistic scenarioPRJP1.node[57].app 	endToEndDelay:histogram
field count 31
field mean 0.59327252052839
field stddev 2.038363788069
field sum 18.39144813638
field sqrsum 135.55894876736
field min 0.00097128394
field max 9.710313534685
attr interpolationmode  none
attr source  messageAge(rcvdPk)
attr title  "delay, histogram"
attr unit  s
bin	-INF	0
bin	-4.8536998414325	0
bin	-4.2064103580495	0
bin	-3.5591208746665	0
bin	-2.9118313912835	0
bin	-2.2645419079005	0
bin	-1.6172524245175	0
bin	-0.9699629411345	0
bin	-0.3226734577515	27
bin	0.3246160256315	1
bin	0.9719055090145	0
bin	1.6191949923975	1
bin	2.2664844757805	0
bin	2.9137739591635	0
bin	3.5610634425465	0
bin	4.2083529259295	0
bin	4.8556424093125	0
bin	5.5029318926955	1
bin	6.1502213760785	0
bin	6.7975108594615	0
bin	7.4448003428445	0
bin	8.0920898262275	0
bin	8.7393793096105	0
bin	9.3866687929935	1
bin	10.033958276377	0
bin	10.68124775976	0
bin	11.328537243142	0
bin	11.975826726525	0
bin	12.623116209908	0
bin	13.270405693291	0
bin	13.917695176674	0
bin	14.564984660057	0
scalar scenarioPRJP1.node[57].udp 	droppedPkBadChecksum:count 	0
attr interpolationmode  none
attr title  "packets dropped (checksum error), count"
scalar scenarioPRJP1.node[57].udp 	droppedPkWrongPort:count 	0
attr interpolationmode  none
attr title  "packets dropped (wrong port), count"
scalar scenarioPRJP1.node[57].udp 	passedUpPk:count 	34
attr interpolationmode  none
attr title  "packets passed up, count"
scalar scenarioPRJP1.node[57].udp 	sentPk:count 	371
attr interpolationmode  none
attr source  sentPk
attr title  "packets sent, count"
scalar scenarioPRJP1.node[57].udp 	sentPk:sum(packetBytes) 	192920
attr interpolationmode  none
attr source  sentPk
attr title  "packets sent, sum(packetBytes)"
scalar scenarioPRJP1.node[57].udp 	rcvdPk:count 	34
attr interpolationmode  none
attr source  rcvdPk
attr title  "packets received, count"
scalar scenarioPRJP1.node[57].udp 	rcvdPk:sum(packetBytes) 	17680
attr interpolationmode  none
attr source  rcvdPk
attr title  "packets received, sum(packetBytes)"
scalar scenarioPRJP1.node[57].networkLayer.arp 	sentReply:count 	7
attr title  "ARP replies sent, count"
scalar scenarioPRJP1.node[57].networkLayer.arp 	sentReq:count 	15
attr title  "ARP request sent, count"
scalar scenarioPRJP1.node[57].networkLayer.arp 	failedARPResolution:count 	0
attr title  "ARP failed resolutions, count"
scalar scenarioPRJP1.node[57].networkLayer.arp 	completedARPResolution:count 	97
attr title  "ARP completed resolutions, count"
scalar scenarioPRJP1.node[57].networkLayer.arp 	initiatedARPResolution:count 	12
attr title  "ARP initiated resolutions, count"
scalar scenarioPRJP1.node[57].mobility 	startTime 	4.9
scalar scenarioPRJP1.node[57].mobility 	totalTime 	156.8
scalar scenarioPRJP1.node[57].mobility 	stopTime 	161.8
scalar scenarioPRJP1.node[57].mobility 	minSpeed 	2.4757172696535e-013
scalar scenarioPRJP1.node[57].mobility 	maxSpeed 	16.949766483713
scalar scenarioPRJP1.node[57].mobility 	totalDistance 	1448.0209740072
scalar scenarioPRJP1.node[57].mobility 	totalCO2Emission 	404.7082614704
scalar scenarioPRJP1.node[57].wlan[0].mgmt 	dropPkByQueue:count 	0
attr interpolationmode  none
attr source  dropPkByQueue
attr title  "packets dropped by queue, count"
scalar scenarioPRJP1.node[57].wlan[0].mgmt 	dropPkByQueue:sum(packetBytes) 	0
attr interpolationmode  none
attr source  dropPkByQueue
attr title  "packets dropped by queue, sum(packetBytes)"
scalar scenarioPRJP1.node[57].wlan[0].mgmt 	dataQueueLen:max 	0
attr interpolationmode  sample-hold
attr title  "data queue length, max"
scalar scenarioPRJP1.node[57].wlan[0].mgmt 	dataQueueLen:timeavg 	0
attr interpolationmode  sample-hold
attr title  "data queue length, timeavg"
scalar scenarioPRJP1.node[57].wlan[0].mac 	"number of received packets" 	208
scalar scenarioPRJP1.node[57].wlan[0].mac 	"number of collisions" 	1572
scalar scenarioPRJP1.node[57].wlan[0].mac 	"number of internal collisions" 	0
scalar scenarioPRJP1.node[57].wlan[0].mac 	"number of retry for AC 0" 	220
scalar scenarioPRJP1.node[57].wlan[0].mac 	"number of retry for AC 1" 	0
scalar scenarioPRJP1.node[57].wlan[0].mac 	"number of retry for AC 2" 	0
scalar scenarioPRJP1.node[57].wlan[0].mac 	"number of retry for AC 3" 	0
scalar scenarioPRJP1.node[57].wlan[0].mac 	"sent and received bits" 	1669664
scalar scenarioPRJP1.node[57].wlan[0].mac 	"sent packet within AC 0" 	56
scalar scenarioPRJP1.node[57].wlan[0].mac 	"sent packet within AC 1" 	0
scalar scenarioPRJP1.node[57].wlan[0].mac 	"sent packet within AC 2" 	0
scalar scenarioPRJP1.node[57].wlan[0].mac 	"sent packet within AC 3" 	0
scalar scenarioPRJP1.node[57].wlan[0].mac 	"sent in TXOP " 	0
scalar scenarioPRJP1.node[57].wlan[0].mac 	"sentWithoutRetry AC 0" 	51
scalar scenarioPRJP1.node[57].wlan[0].mac 	"sentWithoutRetry AC 1" 	0
scalar scenarioPRJP1.node[57].wlan[0].mac 	"sentWithoutRetry AC 2" 	0
scalar scenarioPRJP1.node[57].wlan[0].mac 	"sentWithoutRetry AC 3" 	0
scalar scenarioPRJP1.node[57].wlan[0].mac 	"numGivenUp AC 0" 	35
scalar scenarioPRJP1.node[57].wlan[0].mac 	"numGivenUp AC 1" 	0
scalar scenarioPRJP1.node[57].wlan[0].mac 	"numGivenUp AC 2" 	0
scalar scenarioPRJP1.node[57].wlan[0].mac 	"numGivenUp AC 3" 	0
scalar scenarioPRJP1.node[57].wlan[0].mac 	"numDropped AC 0" 	0
scalar scenarioPRJP1.node[57].wlan[0].mac 	"numDropped AC 1" 	0
scalar scenarioPRJP1.node[57].wlan[0].mac 	"numDropped AC 2" 	0
scalar scenarioPRJP1.node[57].wlan[0].mac 	"numDropped AC 3" 	0
scalar scenarioPRJP1.node[57].wlan[0].mac 	rcvdPkFromHL:count 	2243
attr interpolationmode  none
attr source  packetReceivedFromUpper
attr title  "packets received from higher layer, count"
scalar scenarioPRJP1.node[57].wlan[0].mac 	rcvdPkFromHL:sum(packetBytes) 	222904
attr interpolationmode  none
attr source  packetReceivedFromUpper
attr title  "packets received from higher layer, sum(packetBytes)"
scalar scenarioPRJP1.node[57].wlan[0].mac 	passedUpPk:count 	10922
attr interpolationmode  none
attr source  packetSentToUpper
attr title  "packets passed to higher layer, count"
scalar scenarioPRJP1.node[57].wlan[0].mac 	passedUpPk:sum(packetBytes) 	987492
attr interpolationmode  none
attr source  packetSentToUpper
attr title  "packets passed to higher layer, sum(packetBytes)"
scalar scenarioPRJP1.node[57].wlan[0].mac 	rcvdPkFromLL:count 	16920
attr interpolationmode  none
attr source  packetReceivedFromLower
attr title  "packets received from lower layer, count"
scalar scenarioPRJP1.node[57].wlan[0].mac 	rcvdPkFromLL:sum(packetBytes) 	2274060
attr interpolationmode  none
attr source  packetReceivedFromLower
attr title  "packets received from lower layer, sum(packetBytes)"
scalar scenarioPRJP1.node[57].wlan[0].mac 	sentDownPk:count 	2671
attr interpolationmode  none
attr source  packetSentToLower
attr title  "packets sent to lower layer, count"
scalar scenarioPRJP1.node[57].wlan[0].mac 	sentDownPk:sum(packetBytes) 	315748
attr interpolationmode  none
attr source  packetSentToLower
attr title  "packets sent to lower layer, sum(packetBytes)"
statistic scenarioPRJP1.node[57].wlan[0].radio 	symbolErrorRate:histogram
field count 0
field mean nan
field stddev nan
field sum 0
field sqrsum 0
field min nan
field max nan
attr source  symbolErrorRate
attr title  "Symbol error rate, histogram"
bin	-INF	0
bin	-0.5	0
bin	-0.46666666666667	0
bin	-0.43333333333333	0
bin	-0.4	0
bin	-0.36666666666667	0
bin	-0.33333333333333	0
bin	-0.3	0
bin	-0.26666666666667	0
bin	-0.23333333333333	0
bin	-0.2	0
bin	-0.16666666666667	0
bin	-0.13333333333333	0
bin	-0.1	0
bin	-0.066666666666667	0
bin	-0.033333333333333	0
bin	-6.9388939039072e-018	0
bin	0.033333333333333	0
bin	0.066666666666667	0
bin	0.1	0
bin	0.13333333333333	0
bin	0.16666666666667	0
bin	0.2	0
bin	0.23333333333333	0
bin	0.26666666666667	0
bin	0.3	0
bin	0.33333333333333	0
bin	0.36666666666667	0
bin	0.4	0
bin	0.43333333333333	0
bin	0.46666666666667	0
bin	0.5	0
statistic scenarioPRJP1.node[57].wlan[0].radio 	bitErrorRate:histogram
field count 0
field mean nan
field stddev nan
field sum 0
field sqrsum 0
field min nan
field max nan
attr source  bitErrorRate
attr title  "Bit error rate, histogram"
bin	-INF	0
bin	-0.5	0
bin	-0.46666666666667	0
bin	-0.43333333333333	0
bin	-0.4	0
bin	-0.36666666666667	0
bin	-0.33333333333333	0
bin	-0.3	0
bin	-0.26666666666667	0
bin	-0.23333333333333	0
bin	-0.2	0
bin	-0.16666666666667	0
bin	-0.13333333333333	0
bin	-0.1	0
bin	-0.066666666666667	0
bin	-0.033333333333333	0
bin	-6.9388939039072e-018	0
bin	0.033333333333333	0
bin	0.066666666666667	0
bin	0.1	0
bin	0.13333333333333	0
bin	0.16666666666667	0
bin	0.2	0
bin	0.23333333333333	0
bin	0.26666666666667	0
bin	0.3	0
bin	0.33333333333333	0
bin	0.36666666666667	0
bin	0.4	0
bin	0.43333333333333	0
bin	0.46666666666667	0
bin	0.5	0
statistic scenarioPRJP1.node[57].wlan[0].radio 	packetErrorRate:histogram
field count 16920
field mean 0.072413867262638
field stddev 0.25122337774218
field sum 1225.2426340838
field sqrsum 1156.5365433528
field min 0
field max 1
attr source  packetErrorRate
attr title  "Packet error rate, histogram"
bin	-INF	0
bin	-0.5	0
bin	-0.43333333333333	0
bin	-0.36666666666667	0
bin	-0.3	0
bin	-0.23333333333333	0
bin	-0.16666666666667	0
bin	-0.1	0
bin	-0.033333333333333	15398
bin	0.033333333333333	127
bin	0.1	66
bin	0.16666666666667	46
bin	0.23333333333333	25
bin	0.3	22
bin	0.36666666666667	17
bin	0.43333333333333	13
bin	0.5	22
bin	0.56666666666667	23
bin	0.63333333333333	12
bin	0.7	14
bin	0.76666666666667	18
bin	0.83333333333333	29
bin	0.9	39
bin	0.96666666666667	1049
bin	1.0333333333333	0
bin	1.1	0
bin	1.1666666666667	0
bin	1.2333333333333	0
bin	1.3	0
bin	1.3666666666667	0
bin	1.4333333333333	0
bin	1.5	0
statistic scenarioPRJP1.node[57].wlan[0].radio 	minSNIR:histogram
field count 16920
field mean 4749.4460816406
field stddev 26047.582456348
field sum 80360627.701359
field sqrsum 11860813248601
field min 0.0008632523971672
field max 750810.51854845
attr source  minSNIR
attr title  "Min SNIR, histogram"
bin	-INF	0
bin	-529.91071785162	0
bin	-459.14866005965	0
bin	-388.38660226768	0
bin	-317.6245444757	0
bin	-246.86248668373	0
bin	-176.10042889176	0
bin	-105.33837109978	0
bin	-34.57631330781	7679
bin	36.185744484163	1615
bin	106.94780227614	1290
bin	177.70986006811	878
bin	248.47191786008	559
bin	319.23397565206	341
bin	389.99603344403	262
bin	460.758091236	143
bin	531.52014902797	155
bin	602.28220681995	127
bin	673.04426461192	116
bin	743.80632240389	91
bin	814.56838019587	115
bin	885.33043798784	155
bin	956.09249577981	132
bin	1026.8545535718	101
bin	1097.6166113638	64
bin	1168.3786691557	63
bin	1239.1407269477	52
bin	1309.9027847397	55
bin	1380.6648425317	67
bin	1451.4269003236	83
bin	1522.1889581156	66
bin	1592.9510159076	2711
scalar scenarioPRJP1.node[57].wlan[0].radio 	transmissionState:count 	10684
attr interpolationmode  sample-hold
attr source  transmissionStateChanged
attr title  "Radio transmission state, count"
scalar scenarioPRJP1.node[57].wlan[0].radio 	receptionState:count 	39418
attr interpolationmode  sample-hold
attr source  receptionStateChanged
attr title  "Radio reception state, count"
scalar scenarioPRJP1.node[57].wlan[0].radio 	radioMode:count 	5344
attr interpolationmode  sample-hold
attr source  radioModeChanged
attr title  "Radio mode, count"
statistic scenarioPRJP1.node[57].wlan[0].radio 	radioChannel:histogram
field count 1
field mean 3
field stddev nan
field sum 3
field sqrsum 9
field min 3
field max 3
attr interpolationmode  sample-hold
attr source  radioChannelChanged
attr title  "Radio channel, histogram"
bin	-INF	0
bin	2	0
bin	3	1
bin	4	0
scalar scenarioPRJP1.node[57].lo0.lo 	droppedPkBitError:count 	0
attr interpolationmode  none
attr source  dropPkBitError
attr title  "packets dropped/bit error, count"
scalar scenarioPRJP1.node[57].lo0.lo 	droppedPkBitError:sum(packetBytes) 	0
attr interpolationmode  none
attr source  dropPkBitError
attr title  "packets dropped/bit error, sum(packetBytes)"
scalar scenarioPRJP1.node[57].lo0.lo 	rcvdPkFromHL:count 	0
attr interpolationmode  none
attr source  packetReceivedFromUpper
attr title  "packets received from higher layer, count"
scalar scenarioPRJP1.node[57].lo0.lo 	rcvdPkFromHL:sum(packetBytes) 	0
attr interpolationmode  none
attr source  packetReceivedFromUpper
attr title  "packets received from higher layer, sum(packetBytes)"
scalar scenarioPRJP1.node[57].lo0.lo 	passedUpPk:count 	0
attr interpolationmode  none
attr source  packetSentToUpper
attr title  "packets passed to higher layer, count"
scalar scenarioPRJP1.node[57].lo0.lo 	passedUpPk:sum(packetBytes) 	0
attr interpolationmode  none
attr source  packetSentToUpper
attr title  "packets passed to higher layer, sum(packetBytes)"
scalar scenarioPRJP1.node[34].app 	"Total sent" 	616
scalar scenarioPRJP1.node[34].app 	"Total received" 	46
scalar scenarioPRJP1.node[34].app 	"Total deleted" 	7
scalar scenarioPRJP1.node[34].app 	outOfOrderPk:count 	3
attr interpolationmode  none
attr source  outOfOrderPk
attr title  "packets received out of order, count"
scalar scenarioPRJP1.node[34].app 	outOfOrderPk:sum(packetBytes) 	1536
attr interpolationmode  none
attr source  outOfOrderPk
attr title  "packets received out of order, sum(packetBytes)"
scalar scenarioPRJP1.node[34].app 	dropPk:count 	7
attr interpolationmode  none
attr source  dropPk
attr title  "packets dropped, count"
scalar scenarioPRJP1.node[34].app 	dropPk:sum(packetBytes) 	3584
attr interpolationmode  none
attr source  dropPk
attr title  "packets dropped, sum(packetBytes)"
scalar scenarioPRJP1.node[34].app 	sentPk:count 	616
attr interpolationmode  none
attr source  sentPk
attr title  "packets sent, count"
scalar scenarioPRJP1.node[34].app 	sentPk:sum(packetBytes) 	315392
attr interpolationmode  none
attr source  sentPk
attr title  "packets sent, sum(packetBytes)"
scalar scenarioPRJP1.node[34].app 	rcvdPk:count 	46
attr interpolationmode  none
attr source  rcvdPk
attr title  "packets received, count"
scalar scenarioPRJP1.node[34].app 	rcvdPk:sum(packetBytes) 	23552
attr interpolationmode  none
attr source  rcvdPk
attr title  "packets received, sum(packetBytes)"
statistic scenarioPRJP1.node[34].app 	endToEndDelay:histogram
field count 46
field mean 1.3548204885623
field stddev 3.8832497077709
field sum 62.321742473866
field sqrsum 763.01804676711
field min 0.000971010994
field max 19.162970134858
attr interpolationmode  none
attr source  messageAge(rcvdPk)
attr title  "delay, histogram"
attr unit  s
bin	-INF	0
bin	-9.580028550938	0
bin	-8.3025619426804	0
bin	-7.0250953344228	0
bin	-5.7476287261652	0
bin	-4.4701621179076	0
bin	-3.19269550965	0
bin	-1.9152289013924	0
bin	-0.6377622931348	39
bin	0.6397043151228	1
bin	1.9171709233804	1
bin	3.194637531638	0
bin	4.4721041398956	0
bin	5.7495707481532	0
bin	7.0270373564108	0
bin	8.3045039646684	2
bin	9.581970572926	2
bin	10.859437181184	0
bin	12.136903789441	0
bin	13.414370397699	0
bin	14.691837005956	0
bin	15.969303614214	0
bin	17.246770222472	0
bin	18.524236830729	1
bin	19.801703438987	0
bin	21.079170047244	0
bin	22.356636655502	0
bin	23.63410326376	0
bin	24.911569872017	0
bin	26.189036480275	0
bin	27.466503088532	0
bin	28.74396969679	0
scalar scenarioPRJP1.node[34].udp 	droppedPkBadChecksum:count 	0
attr interpolationmode  none
attr title  "packets dropped (checksum error), count"
scalar scenarioPRJP1.node[34].udp 	droppedPkWrongPort:count 	0
attr interpolationmode  none
attr title  "packets dropped (wrong port), count"
scalar scenarioPRJP1.node[34].udp 	passedUpPk:count 	56
attr interpolationmode  none
attr title  "packets passed up, count"
scalar scenarioPRJP1.node[34].udp 	sentPk:count 	616
attr interpolationmode  none
attr source  sentPk
attr title  "packets sent, count"
scalar scenarioPRJP1.node[34].udp 	sentPk:sum(packetBytes) 	320320
attr interpolationmode  none
attr source  sentPk
attr title  "packets sent, sum(packetBytes)"
scalar scenarioPRJP1.node[34].udp 	rcvdPk:count 	56
attr interpolationmode  none
attr source  rcvdPk
attr title  "packets received, count"
scalar scenarioPRJP1.node[34].udp 	rcvdPk:sum(packetBytes) 	29120
attr interpolationmode  none
attr source  rcvdPk
attr title  "packets received, sum(packetBytes)"
scalar scenarioPRJP1.node[34].networkLayer.arp 	sentReply:count 	15
attr title  "ARP replies sent, count"
scalar scenarioPRJP1.node[34].networkLayer.arp 	sentReq:count 	32
attr title  "ARP request sent, count"
scalar scenarioPRJP1.node[34].networkLayer.arp 	failedARPResolution:count 	6
attr title  "ARP failed resolutions, count"
scalar scenarioPRJP1.node[34].networkLayer.arp 	completedARPResolution:count 	107
attr title  "ARP completed resolutions, count"
scalar scenarioPRJP1.node[34].networkLayer.arp 	initiatedARPResolution:count 	19
attr title  "ARP initiated resolutions, count"
scalar scenarioPRJP1.node[34].mobility 	startTime 	2.5
scalar scenarioPRJP1.node[34].mobility 	totalTime 	244.7
scalar scenarioPRJP1.node[34].mobility 	stopTime 	247.3
scalar scenarioPRJP1.node[34].mobility 	minSpeed 	2.4761728820482e-013
scalar scenarioPRJP1.node[34].mobility 	maxSpeed 	16.885867146736
scalar scenarioPRJP1.node[34].mobility 	totalDistance 	2233.963790605
scalar scenarioPRJP1.node[34].mobility 	totalCO2Emission 	638.33022012751
scalar scenarioPRJP1.node[34].wlan[0].mgmt 	dropPkByQueue:count 	0
attr interpolationmode  none
attr source  dropPkByQueue
attr title  "packets dropped by queue, count"
scalar scenarioPRJP1.node[34].wlan[0].mgmt 	dropPkByQueue:sum(packetBytes) 	0
attr interpolationmode  none
attr source  dropPkByQueue
attr title  "packets dropped by queue, sum(packetBytes)"
scalar scenarioPRJP1.node[34].wlan[0].mgmt 	dataQueueLen:max 	8
attr interpolationmode  sample-hold
attr title  "data queue length, max"
scalar scenarioPRJP1.node[34].wlan[0].mgmt 	dataQueueLen:timeavg 	0
attr interpolationmode  sample-hold
attr title  "data queue length, timeavg"
scalar scenarioPRJP1.node[34].wlan[0].mac 	"number of received packets" 	488
scalar scenarioPRJP1.node[34].wlan[0].mac 	"number of collisions" 	1948
scalar scenarioPRJP1.node[34].wlan[0].mac 	"number of internal collisions" 	0
scalar scenarioPRJP1.node[34].wlan[0].mac 	"number of retry for AC 0" 	605
scalar scenarioPRJP1.node[34].wlan[0].mac 	"number of retry for AC 1" 	0
scalar scenarioPRJP1.node[34].wlan[0].mac 	"number of retry for AC 2" 	0
scalar scenarioPRJP1.node[34].wlan[0].mac 	"number of retry for AC 3" 	0
scalar scenarioPRJP1.node[34].wlan[0].mac 	"sent and received bits" 	2290688
scalar scenarioPRJP1.node[34].wlan[0].mac 	"sent packet within AC 0" 	73
scalar scenarioPRJP1.node[34].wlan[0].mac 	"sent packet within AC 1" 	0
scalar scenarioPRJP1.node[34].wlan[0].mac 	"sent packet within AC 2" 	0
scalar scenarioPRJP1.node[34].wlan[0].mac 	"sent packet within AC 3" 	0
scalar scenarioPRJP1.node[34].wlan[0].mac 	"sent in TXOP " 	0
scalar scenarioPRJP1.node[34].wlan[0].mac 	"sentWithoutRetry AC 0" 	69
scalar scenarioPRJP1.node[34].wlan[0].mac 	"sentWithoutRetry AC 1" 	0
scalar scenarioPRJP1.node[34].wlan[0].mac 	"sentWithoutRetry AC 2" 	0
scalar scenarioPRJP1.node[34].wlan[0].mac 	"sentWithoutRetry AC 3" 	0
scalar scenarioPRJP1.node[34].wlan[0].mac 	"numGivenUp AC 0" 	100
scalar scenarioPRJP1.node[34].wlan[0].mac 	"numGivenUp AC 1" 	0
scalar scenarioPRJP1.node[34].wlan[0].mac 	"numGivenUp AC 2" 	0
scalar scenarioPRJP1.node[34].wlan[0].mac 	"numGivenUp AC 3" 	0
scalar scenarioPRJP1.node[34].wlan[0].mac 	"numDropped AC 0" 	0
scalar scenarioPRJP1.node[34].wlan[0].mac 	"numDropped AC 1" 	0
scalar scenarioPRJP1.node[34].wlan[0].mac 	"numDropped AC 2" 	0
scalar scenarioPRJP1.node[34].wlan[0].mac 	"numDropped AC 3" 	0
scalar scenarioPRJP1.node[34].wlan[0].mac 	rcvdPkFromHL:count 	3109
attr interpolationmode  none
attr source  packetReceivedFromUpper
attr title  "packets received from higher layer, count"
scalar scenarioPRJP1.node[34].wlan[0].mac 	rcvdPkFromHL:sum(packetBytes) 	324056
attr interpolationmode  none
attr source  packetReceivedFromUpper
attr title  "packets received from higher layer, sum(packetBytes)"
scalar scenarioPRJP1.node[34].wlan[0].mac 	passedUpPk:count 	15898
attr interpolationmode  none
attr source  packetSentToUpper
attr title  "packets passed to higher layer, count"
scalar scenarioPRJP1.node[34].wlan[0].mac 	passedUpPk:sum(packetBytes) 	1451260
attr interpolationmode  none
attr source  packetSentToUpper
attr title  "packets passed to higher layer, sum(packetBytes)"
scalar scenarioPRJP1.node[34].wlan[0].mac 	rcvdPkFromLL:count 	24533
attr interpolationmode  none
attr source  packetReceivedFromLower
attr title  "packets received from lower layer, count"
scalar scenarioPRJP1.node[34].wlan[0].mac 	rcvdPkFromLL:sum(packetBytes) 	3446726
attr interpolationmode  none
attr source  packetReceivedFromLower
attr title  "packets received from lower layer, sum(packetBytes)"
scalar scenarioPRJP1.node[34].wlan[0].mac 	sentDownPk:count 	4202
attr interpolationmode  none
attr source  packetSentToLower
attr title  "packets sent to lower layer, count"
scalar scenarioPRJP1.node[34].wlan[0].mac 	sentDownPk:sum(packetBytes) 	558612
attr interpolationmode  none
attr source  packetSentToLower
attr title  "packets sent to lower layer, sum(packetBytes)"
statistic scenarioPRJP1.node[34].wlan[0].radio 	symbolErrorRate:histogram
field count 0
field mean nan
field stddev nan
field sum 0
field sqrsum 0
field min nan
field max nan
attr source  symbolErrorRate
attr title  "Symbol error rate, histogram"
bin	-INF	0
bin	-0.5	0
bin	-0.46666666666667	0
bin	-0.43333333333333	0
bin	-0.4	0
bin	-0.36666666666667	0
bin	-0.33333333333333	0
bin	-0.3	0
bin	-0.26666666666667	0
bin	-0.23333333333333	0
bin	-0.2	0
bin	-0.16666666666667	0
bin	-0.13333333333333	0
bin	-0.1	0
bin	-0.066666666666667	0
bin	-0.033333333333333	0
bin	-6.9388939039072e-018	0
bin	0.033333333333333	0
bin	0.066666666666667	0
bin	0.1	0
bin	0.13333333333333	0
bin	0.16666666666667	0
bin	0.2	0
bin	0.23333333333333	0
bin	0.26666666666667	0
bin	0.3	0
bin	0.33333333333333	0
bin	0.36666666666667	0
bin	0.4	0
bin	0.43333333333333	0
bin	0.46666666666667	0
bin	0.5	0
statistic scenarioPRJP1.node[34].wlan[0].radio 	bitErrorRate:histogram
field count 0
field mean nan
field stddev nan
field sum 0
field sqrsum 0
field min nan
field max nan
attr source  bitErrorRate
attr title  "Bit error rate, histogram"
bin	-INF	0
bin	-0.5	0
bin	-0.46666666666667	0
bin	-0.43333333333333	0
bin	-0.4	0
bin	-0.36666666666667	0
bin	-0.33333333333333	0
bin	-0.3	0
bin	-0.26666666666667	0
bin	-0.23333333333333	0
bin	-0.2	0
bin	-0.16666666666667	0
bin	-0.13333333333333	0
bin	-0.1	0
bin	-0.066666666666667	0
bin	-0.033333333333333	0
bin	-6.9388939039072e-018	0
bin	0.033333333333333	0
bin	0.066666666666667	0
bin	0.1	0
bin	0.13333333333333	0
bin	0.16666666666667	0
bin	0.2	0
bin	0.23333333333333	0
bin	0.26666666666667	0
bin	0.3	0
bin	0.33333333333333	0
bin	0.36666666666667	0
bin	0.4	0
bin	0.43333333333333	0
bin	0.46666666666667	0
bin	0.5	0
statistic scenarioPRJP1.node[34].wlan[0].radio 	packetErrorRate:histogram
field count 24533
field mean 0.062899210070498
field stddev 0.234746378648
field sum 1543.1063206595
field sqrsum 1448.9171822821
field min 0
field max 1
attr source  packetErrorRate
attr title  "Packet error rate, histogram"
bin	-INF	0
bin	-0.00085184431561847	0
bin	-0.000738265073536	0
bin	-0.00062468583145354	0
bin	-0.00051110658937108	0
bin	-0.00039752734728862	0
bin	-0.00028394810520616	0
bin	-0.00017036886312369	0
bin	-5.6789621041231e-005	21635
bin	5.6789621041231e-005	162
bin	0.00017036886312369	83
bin	0.00028394810520616	40
bin	0.00039752734728862	32
bin	0.00051110658937108	38
bin	0.00062468583145354	23
bin	0.000738265073536	18
bin	0.00085184431561847	16
bin	0.00096542355770093	17
bin	0.0010790027997834	10
bin	0.0011925820418659	14
bin	0.0013061612839483	12
bin	0.0014197405260308	12
bin	0.0015333197681132	15
bin	0.0016468990101957	12
bin	0.0017604782522782	9
bin	0.0018740574943606	3
bin	0.0019876367364431	11
bin	0.0021012159785256	4
bin	0.002214795220608	3
bin	0.0023283744626905	10
bin	0.0024419537047729	5
bin	0.0025555329468554	2349
statistic scenarioPRJP1.node[34].wlan[0].radio 	minSNIR:histogram
field count 24533
field mean 17462.61085374
field stddev 92245.705431565
field sum 428410232.0748
field sqrsum 2.1623057699283e+014
field min 0.00074134315138238
field max 753239.71923443
attr source  minSNIR
attr title  "Min SNIR, histogram"
bin	-INF	0
bin	-1562.8586184715	0
bin	-1353.9315514527	0
bin	-1145.0044844339	0
bin	-936.07741741507	0
bin	-727.15035039625	0
bin	-518.22328337743	0
bin	-309.29621635861	0
bin	-100.36914933979	12299
bin	108.55791767902	3698
bin	317.48498469784	1315
bin	526.41205171666	545
bin	735.33911873548	397
bin	944.2661857543	341
bin	1153.1932527731	283
bin	1362.1203197919	220
bin	1571.0473868108	237
bin	1779.9744538296	196
bin	1988.9015208484	154
bin	2197.8285878672	136
bin	2406.755654886	123
bin	2615.6827219049	112
bin	2824.6097889237	101
bin	3033.5368559425	91
bin	3242.4639229613	73
bin	3451.3909899801	60
bin	3660.3180569989	71
bin	3869.2451240178	67
bin	4078.1721910366	47
bin	4287.0992580554	57
bin	4496.0263250742	62
bin	4704.953392093	3848
scalar scenarioPRJP1.node[34].wlan[0].radio 	transmissionState:count 	16808
attr interpolationmode  sample-hold
attr source  transmissionStateChanged
attr title  "Radio transmission state, count"
scalar scenarioPRJP1.node[34].wlan[0].radio 	receptionState:count 	57712
attr interpolationmode  sample-hold
attr source  receptionStateChanged
attr title  "Radio reception state, count"
scalar scenarioPRJP1.node[34].wlan[0].radio 	radioMode:count 	8406
attr interpolationmode  sample-hold
attr source  radioModeChanged
attr title  "Radio mode, count"
statistic scenarioPRJP1.node[34].wlan[0].radio 	radioChannel:histogram
field count 1
field mean 3
field stddev nan
field sum 3
field sqrsum 9
field min 3
field max 3
attr interpolationmode  sample-hold
attr source  radioChannelChanged
attr title  "Radio channel, histogram"
bin	-INF	0
bin	2	0
bin	3	1
bin	4	0
scalar scenarioPRJP1.node[34].lo0.lo 	droppedPkBitError:count 	0
attr interpolationmode  none
attr source  dropPkBitError
attr title  "packets dropped/bit error, count"
scalar scenarioPRJP1.node[34].lo0.lo 	droppedPkBitError:sum(packetBytes) 	0
attr interpolationmode  none
attr source  dropPkBitError
attr title  "packets dropped/bit error, sum(packetBytes)"
scalar scenarioPRJP1.node[34].lo0.lo 	rcvdPkFromHL:count 	0
attr interpolationmode  none
attr source  packetReceivedFromUpper
attr title  "packets received from higher layer, count"
scalar scenarioPRJP1.node[34].lo0.lo 	rcvdPkFromHL:sum(packetBytes) 	0
attr interpolationmode  none
attr source  packetReceivedFromUpper
attr title  "packets received from higher layer, sum(packetBytes)"
scalar scenarioPRJP1.node[34].lo0.lo 	passedUpPk:count 	0
attr interpolationmode  none
attr source  packetSentToUpper
attr title  "packets passed to higher layer, count"
scalar scenarioPRJP1.node[34].lo0.lo 	passedUpPk:sum(packetBytes) 	0
attr interpolationmode  none
attr source  packetSentToUpper
attr title  "packets passed to higher layer, sum(packetBytes)"
scalar scenarioPRJP1.node[86].app 	"Total sent" 	722
scalar scenarioPRJP1.node[86].app 	"Total received" 	67
scalar scenarioPRJP1.node[86].app 	"Total deleted" 	16
scalar scenarioPRJP1.node[86].app 	outOfOrderPk:count 	3
attr interpolationmode  none
attr source  outOfOrderPk
attr title  "packets received out of order, count"
scalar scenarioPRJP1.node[86].app 	outOfOrderPk:sum(packetBytes) 	1536
attr interpolationmode  none
attr source  outOfOrderPk
attr title  "packets received out of order, sum(packetBytes)"
scalar scenarioPRJP1.node[86].app 	dropPk:count 	16
attr interpolationmode  none
attr source  dropPk
attr title  "packets dropped, count"
scalar scenarioPRJP1.node[86].app 	dropPk:sum(packetBytes) 	8192
attr interpolationmode  none
attr source  dropPk
attr title  "packets dropped, sum(packetBytes)"
scalar scenarioPRJP1.node[86].app 	sentPk:count 	722
attr interpolationmode  none
attr source  sentPk
attr title  "packets sent, count"
scalar scenarioPRJP1.node[86].app 	sentPk:sum(packetBytes) 	369664
attr interpolationmode  none
attr source  sentPk
attr title  "packets sent, sum(packetBytes)"
scalar scenarioPRJP1.node[86].app 	rcvdPk:count 	67
attr interpolationmode  none
attr source  rcvdPk
attr title  "packets received, count"
scalar scenarioPRJP1.node[86].app 	rcvdPk:sum(packetBytes) 	34304
attr interpolationmode  none
attr source  rcvdPk
attr title  "packets received, sum(packetBytes)"
statistic scenarioPRJP1.node[86].app 	endToEndDelay:histogram
field count 67
field mean 0.29805042318372
field stddev 1.654369946805
field sum 19.969378353309
field sqrsum 186.58991644777
field min 0.000945085924
field max 9.815671578108
attr interpolationmode  none
attr source  messageAge(rcvdPk)
attr title  "delay, histogram"
attr unit  s
bin	-INF	0
bin	-4.906418160168	0
bin	-4.2521030606891	0
bin	-3.5977879612101	0
bin	-2.9434728617312	0
bin	-2.2891577622523	0
bin	-1.6348426627733	0
bin	-0.9805275632944	0
bin	-0.32621246381547	65
bin	0.32810263566347	0
bin	0.9824177351424	0
bin	1.6367328346213	0
bin	2.2910479341003	0
bin	2.9453630335792	0
bin	3.5996781330581	0
bin	4.2539932325371	0
bin	4.908308332016	0
bin	5.5626234314949	0
bin	6.2169385309739	0
bin	6.8712536304528	0
bin	7.5255687299317	0
bin	8.1798838294107	0
bin	8.8341989288896	0
bin	9.4885140283685	2
bin	10.142829127847	0
bin	10.797144227326	0
bin	11.451459326805	0
bin	12.105774426284	0
bin	12.760089525763	0
bin	13.414404625242	0
bin	14.068719724721	0
bin	14.7230348242	0
scalar scenarioPRJP1.node[86].udp 	droppedPkBadChecksum:count 	0
attr interpolationmode  none
attr title  "packets dropped (checksum error), count"
scalar scenarioPRJP1.node[86].udp 	droppedPkWrongPort:count 	0
attr interpolationmode  none
attr title  "packets dropped (wrong port), count"
scalar scenarioPRJP1.node[86].udp 	passedUpPk:count 	86
attr interpolationmode  none
attr title  "packets passed up, count"
scalar scenarioPRJP1.node[86].udp 	sentPk:count 	722
attr interpolationmode  none
attr source  sentPk
attr title  "packets sent, count"
scalar scenarioPRJP1.node[86].udp 	sentPk:sum(packetBytes) 	375440
attr interpolationmode  none
attr source  sentPk
attr title  "packets sent, sum(packetBytes)"
scalar scenarioPRJP1.node[86].udp 	rcvdPk:count 	86
attr interpolationmode  none
attr source  rcvdPk
attr title  "packets received, count"
scalar scenarioPRJP1.node[86].udp 	rcvdPk:sum(packetBytes) 	44720
attr interpolationmode  none
attr source  rcvdPk
attr title  "packets received, sum(packetBytes)"
scalar scenarioPRJP1.node[86].networkLayer.arp 	sentReply:count 	17
attr title  "ARP replies sent, count"
scalar scenarioPRJP1.node[86].networkLayer.arp 	sentReq:count 	27
attr title  "ARP request sent, count"
scalar scenarioPRJP1.node[86].networkLayer.arp 	failedARPResolution:count 	0
attr title  "ARP failed resolutions, count"
scalar scenarioPRJP1.node[86].networkLayer.arp 	completedARPResolution:count 	186
attr title  "ARP completed resolutions, count"
scalar scenarioPRJP1.node[86].networkLayer.arp 	initiatedARPResolution:count 	22
attr title  "ARP initiated resolutions, count"
scalar scenarioPRJP1.node[86].mobility 	startTime 	9.7
scalar scenarioPRJP1.node[86].mobility 	totalTime 	275.1
scalar scenarioPRJP1.node[86].mobility 	stopTime 	284.9
scalar scenarioPRJP1.node[86].mobility 	minSpeed 	2.4754325092906e-013
scalar scenarioPRJP1.node[86].mobility 	maxSpeed 	17.539053037835
scalar scenarioPRJP1.node[86].mobility 	totalDistance 	2202.5214209519
scalar scenarioPRJP1.node[86].mobility 	totalCO2Emission 	701.66534285581
scalar scenarioPRJP1.node[86].wlan[0].mgmt 	dropPkByQueue:count 	0
attr interpolationmode  none
attr source  dropPkByQueue
attr title  "packets dropped by queue, count"
scalar scenarioPRJP1.node[86].wlan[0].mgmt 	dropPkByQueue:sum(packetBytes) 	0
attr interpolationmode  none
attr source  dropPkByQueue
attr title  "packets dropped by queue, sum(packetBytes)"
scalar scenarioPRJP1.node[86].wlan[0].mgmt 	dataQueueLen:max 	2
attr interpolationmode  sample-hold
attr title  "data queue length, max"
scalar scenarioPRJP1.node[86].wlan[0].mgmt 	dataQueueLen:timeavg 	0
attr interpolationmode  sample-hold
attr title  "data queue length, timeavg"
scalar scenarioPRJP1.node[86].wlan[0].mac 	"number of received packets" 	761
scalar scenarioPRJP1.node[86].wlan[0].mac 	"number of collisions" 	4207
scalar scenarioPRJP1.node[86].wlan[0].mac 	"number of internal collisions" 	0
scalar scenarioPRJP1.node[86].wlan[0].mac 	"number of retry for AC 0" 	886
scalar scenarioPRJP1.node[86].wlan[0].mac 	"number of retry for AC 1" 	0
scalar scenarioPRJP1.node[86].wlan[0].mac 	"number of retry for AC 2" 	0
scalar scenarioPRJP1.node[86].wlan[0].mac 	"number of retry for AC 3" 	0
scalar scenarioPRJP1.node[86].wlan[0].mac 	"sent and received bits" 	3272320
scalar scenarioPRJP1.node[86].wlan[0].mac 	"sent packet within AC 0" 	193
scalar scenarioPRJP1.node[86].wlan[0].mac 	"sent packet within AC 1" 	0
scalar scenarioPRJP1.node[86].wlan[0].mac 	"sent packet within AC 2" 	0
scalar scenarioPRJP1.node[86].wlan[0].mac 	"sent packet within AC 3" 	0
scalar scenarioPRJP1.node[86].wlan[0].mac 	"sent in TXOP " 	0
scalar scenarioPRJP1.node[86].wlan[0].mac 	"sentWithoutRetry AC 0" 	178
[...]
bin	-0.1	0
bin	-0.066666666666667	0
bin	-0.033333333333333	0
bin	-6.9388939039072e-018	0
bin	0.033333333333333	0
bin	0.066666666666667	0
bin	0.1	0
bin	0.13333333333333	0
bin	0.16666666666667	0
bin	0.2	0
bin	0.23333333333333	0
bin	0.26666666666667	0
bin	0.3	0
bin	0.33333333333333	0
bin	0.36666666666667	0
bin	0.4	0
bin	0.43333333333333	0
bin	0.46666666666667	0
bin	0.5	0
statistic scenarioPRJP1.node[76].wlan[0].radio 	bitErrorRate:histogram
field count 0
field mean nan
field stddev nan
field sum 0
field sqrsum 0
field min nan
field max nan
attr source  bitErrorRate
attr title  "Bit error rate, histogram"
bin	-INF	0
bin	-0.5	0
bin	-0.46666666666667	0
bin	-0.43333333333333	0
bin	-0.4	0
bin	-0.36666666666667	0
bin	-0.33333333333333	0
bin	-0.3	0
bin	-0.26666666666667	0
bin	-0.23333333333333	0
bin	-0.2	0
bin	-0.16666666666667	0
bin	-0.13333333333333	0
bin	-0.1	0
bin	-0.066666666666667	0
bin	-0.033333333333333	0
bin	-6.9388939039072e-018	0
bin	0.033333333333333	0
bin	0.066666666666667	0
bin	0.1	0
bin	0.13333333333333	0
bin	0.16666666666667	0
bin	0.2	0
bin	0.23333333333333	0
bin	0.26666666666667	0
bin	0.3	0
bin	0.33333333333333	0
bin	0.36666666666667	0
bin	0.4	0
bin	0.43333333333333	0
bin	0.46666666666667	0
bin	0.5	0
statistic scenarioPRJP1.node[76].wlan[0].radio 	packetErrorRate:histogram
field count 201802
field mean 0.084412216032213
field stddev 0.26941031541989
field sum 17034.554019733
field sqrsum 16085.028099271
field min 0
field max 1
attr source  packetErrorRate
attr title  "Packet error rate, histogram"
bin	-INF	0
bin	-0.5	0
bin	-0.43333333333333	0
bin	-0.36666666666667	0
bin	-0.3	0
bin	-0.23333333333333	0
bin	-0.16666666666667	0
bin	-0.1	0
bin	-0.033333333333333	180715
bin	0.033333333333333	1743
bin	0.1	821
bin	0.16666666666667	501
bin	0.23333333333333	429
bin	0.3	353
bin	0.36666666666667	296
bin	0.43333333333333	266
bin	0.5	244
bin	0.56666666666667	251
bin	0.63333333333333	240
bin	0.7	218
bin	0.76666666666667	253
bin	0.83333333333333	293
bin	0.9	467
bin	0.96666666666667	14712
bin	1.0333333333333	0
bin	1.1	0
bin	1.1666666666667	0
bin	1.2333333333333	0
bin	1.3	0
bin	1.3666666666667	0
bin	1.4333333333333	0
bin	1.5	0
statistic scenarioPRJP1.node[76].wlan[0].radio 	minSNIR:histogram
field count 201802
field mean 12319.091760557
field stddev 68940.392761602
field sum 2486017355.464
field sqrsum 9.8974077948026e+014
field min 0.0001682671407202
field max 3960582.2143418
attr source  minSNIR
attr title  "Min SNIR, histogram"
bin	-INF	0
bin	-1560.6546977964	0
bin	-1352.4537255389	0
bin	-1144.2527532815	0
bin	-936.05178102401	0
bin	-727.85080876656	0
bin	-519.64983650911	0
bin	-311.44886425165	0
bin	-103.2478919942	110979
bin	104.95308026326	26732
bin	313.15405252071	9054
bin	521.35502477817	5738
bin	729.55599703562	3861
bin	937.75696929307	2950
bin	1145.9579415505	2176
bin	1354.158913808	1846
bin	1562.3598860654	1576
bin	1770.5608583229	1319
bin	1978.7618305803	1064
bin	2186.9628028378	794
bin	2395.1637750953	794
bin	2603.3647473527	607
bin	2811.5657196102	706
bin	3019.7666918676	617
bin	3227.9676641251	659
bin	3436.1686363825	516
bin	3644.36960864	485
bin	3852.5705808974	421
bin	4060.7715531549	447
bin	4268.9725254123	346
bin	4477.1734976698	277
bin	4685.3744699273	27838
scalar scenarioPRJP1.node[76].wlan[0].radio 	transmissionState:count 	92264
attr interpolationmode  sample-hold
attr source  transmissionStateChanged
attr title  "Radio transmission state, count"
scalar scenarioPRJP1.node[76].wlan[0].radio 	receptionState:count 	452020
attr interpolationmode  sample-hold
attr source  receptionStateChanged
attr title  "Radio reception state, count"
scalar scenarioPRJP1.node[76].wlan[0].radio 	radioMode:count 	46134
attr interpolationmode  sample-hold
attr source  radioModeChanged
attr title  "Radio mode, count"
statistic scenarioPRJP1.node[76].wlan[0].radio 	radioChannel:histogram
field count 1
field mean 3
field stddev nan
field sum 3
field sqrsum 9
field min 3
field max 3
attr interpolationmode  sample-hold
attr source  radioChannelChanged
attr title  "Radio channel, histogram"
bin	-INF	0
bin	2	0
bin	3	1
bin	4	0
scalar scenarioPRJP1.node[76].lo0.lo 	droppedPkBitError:count 	0
attr interpolationmode  none
attr source  dropPkBitError
attr title  "packets dropped/bit error, count"
scalar scenarioPRJP1.node[76].lo0.lo 	droppedPkBitError:sum(packetBytes) 	0
attr interpolationmode  none
attr source  dropPkBitError
attr title  "packets dropped/bit error, sum(packetBytes)"
scalar scenarioPRJP1.node[76].lo0.lo 	rcvdPkFromHL:count 	0
attr interpolationmode  none
attr source  packetReceivedFromUpper
attr title  "packets received from higher layer, count"
scalar scenarioPRJP1.node[76].lo0.lo 	rcvdPkFromHL:sum(packetBytes) 	0
attr interpolationmode  none
attr source  packetReceivedFromUpper
attr title  "packets received from higher layer, sum(packetBytes)"
scalar scenarioPRJP1.node[76].lo0.lo 	passedUpPk:count 	0
attr interpolationmode  none
attr source  packetSentToUpper
attr title  "packets passed to higher layer, count"
scalar scenarioPRJP1.node[76].lo0.lo 	passedUpPk:sum(packetBytes) 	0
attr interpolationmode  none
attr source  packetSentToUpper
attr title  "packets passed to higher layer, sum(packetBytes)"
scalar scenarioPRJP1.node[94].app 	"Total sent" 	2596
scalar scenarioPRJP1.node[94].app 	"Total received" 	159
scalar scenarioPRJP1.node[94].app 	"Total deleted" 	138
scalar scenarioPRJP1.node[94].app 	outOfOrderPk:count 	41
attr interpolationmode  none
attr source  outOfOrderPk
attr title  "packets received out of order, count"
scalar scenarioPRJP1.node[94].app 	outOfOrderPk:sum(packetBytes) 	20992
attr interpolationmode  none
attr source  outOfOrderPk
attr title  "packets received out of order, sum(packetBytes)"
scalar scenarioPRJP1.node[94].app 	dropPk:count 	138
attr interpolationmode  none
attr source  dropPk
attr title  "packets dropped, count"
scalar scenarioPRJP1.node[94].app 	dropPk:sum(packetBytes) 	70656
attr interpolationmode  none
attr source  dropPk
attr title  "packets dropped, sum(packetBytes)"
scalar scenarioPRJP1.node[94].app 	sentPk:count 	2596
attr interpolationmode  none
attr source  sentPk
attr title  "packets sent, count"
scalar scenarioPRJP1.node[94].app 	sentPk:sum(packetBytes) 	1329152
attr interpolationmode  none
attr source  sentPk
attr title  "packets sent, sum(packetBytes)"
scalar scenarioPRJP1.node[94].app 	rcvdPk:count 	159
attr interpolationmode  none
attr source  rcvdPk
attr title  "packets received, count"
scalar scenarioPRJP1.node[94].app 	rcvdPk:sum(packetBytes) 	81408
attr interpolationmode  none
attr source  rcvdPk
attr title  "packets received, sum(packetBytes)"
statistic scenarioPRJP1.node[94].app 	endToEndDelay:histogram
field count 159
field mean 1.7809079109979
field stddev 4.2657065748321
field sum 283.16435784866
field sqrsum 3379.2975530508
field min 0.000945071199
field max 18.933530411796
attr interpolationmode  none
attr source  messageAge(rcvdPk)
attr title  "delay, histogram"
attr unit  s
bin	-INF	0
bin	-9.4653475990995	0
bin	-8.2031752430597	0
bin	-6.9410028870199	0
bin	-5.6788305309801	0
bin	-4.4166581749403	0
bin	-3.1544858189005	0
bin	-1.8923134628607	0
bin	-0.6301411068209	123
bin	0.6320312492189	8
bin	1.8942036052587	3
bin	3.1563759612985	3
bin	4.4185483173383	0
bin	5.6807206733781	3
bin	6.9428930294179	2
bin	8.2050653854577	5
bin	9.4672377414975	3
bin	10.729410097537	1
bin	11.991582453577	1
bin	13.253754809617	0
bin	14.515927165657	2
bin	15.778099521696	0
bin	17.040271877736	2
bin	18.302444233776	3
bin	19.564616589816	0
bin	20.826788945856	0
bin	22.088961301895	0
bin	23.351133657935	0
bin	24.613306013975	0
bin	25.875478370015	0
bin	27.137650726055	0
bin	28.399823082094	0
scalar scenarioPRJP1.node[94].udp 	droppedPkBadChecksum:count 	0
attr interpolationmode  none
attr title  "packets dropped (checksum error), count"
scalar scenarioPRJP1.node[94].udp 	droppedPkWrongPort:count 	0
attr interpolationmode  none
attr title  "packets dropped (wrong port), count"
scalar scenarioPRJP1.node[94].udp 	passedUpPk:count 	338
attr interpolationmode  none
attr title  "packets passed up, count"
scalar scenarioPRJP1.node[94].udp 	sentPk:count 	2596
attr interpolationmode  none
attr source  sentPk
attr title  "packets sent, count"
scalar scenarioPRJP1.node[94].udp 	sentPk:sum(packetBytes) 	1349920
attr interpolationmode  none
attr source  sentPk
attr title  "packets sent, sum(packetBytes)"
scalar scenarioPRJP1.node[94].udp 	rcvdPk:count 	338
attr interpolationmode  none
attr source  rcvdPk
attr title  "packets received, count"
scalar scenarioPRJP1.node[94].udp 	rcvdPk:sum(packetBytes) 	175760
attr interpolationmode  none
attr source  rcvdPk
attr title  "packets received, sum(packetBytes)"
scalar scenarioPRJP1.node[94].networkLayer.arp 	sentReply:count 	69
attr title  "ARP replies sent, count"
scalar scenarioPRJP1.node[94].networkLayer.arp 	sentReq:count 	131
attr title  "ARP request sent, count"
scalar scenarioPRJP1.node[94].networkLayer.arp 	failedARPResolution:count 	10
attr title  "ARP failed resolutions, count"
scalar scenarioPRJP1.node[94].networkLayer.arp 	completedARPResolution:count 	627
attr title  "ARP completed resolutions, count"
scalar scenarioPRJP1.node[94].networkLayer.arp 	initiatedARPResolution:count 	95
attr title  "ARP initiated resolutions, count"
scalar scenarioPRJP1.node[94].mobility 	startTime 	9.7
scalar scenarioPRJP1.node[94].mobility 	totalTime 	940.2
scalar scenarioPRJP1.node[94].mobility 	stopTime 	950
scalar scenarioPRJP1.node[94].mobility 	minSpeed 	2.475757575167e-013
scalar scenarioPRJP1.node[94].mobility 	maxSpeed 	21.099230171932
scalar scenarioPRJP1.node[94].mobility 	totalDistance 	11153.119485364
scalar scenarioPRJP1.node[94].mobility 	totalCO2Emission 	2964.6919563652
scalar scenarioPRJP1.node[94].wlan[0].mgmt 	dropPkByQueue:count 	0
attr interpolationmode  none
attr source  dropPkByQueue
attr title  "packets dropped by queue, count"
scalar scenarioPRJP1.node[94].wlan[0].mgmt 	dropPkByQueue:sum(packetBytes) 	0
attr interpolationmode  none
attr source  dropPkByQueue
attr title  "packets dropped by queue, sum(packetBytes)"
scalar scenarioPRJP1.node[94].wlan[0].mgmt 	dataQueueLen:max 	15
attr interpolationmode  sample-hold
attr title  "data queue length, max"
scalar scenarioPRJP1.node[94].wlan[0].mgmt 	dataQueueLen:timeavg 	0
attr interpolationmode  sample-hold
attr title  "data queue length, timeavg"
scalar scenarioPRJP1.node[94].wlan[0].mac 	"number of received packets" 	4404
scalar scenarioPRJP1.node[94].wlan[0].mac 	"number of collisions" 	30250
scalar scenarioPRJP1.node[94].wlan[0].mac 	"number of internal collisions" 	0
scalar scenarioPRJP1.node[94].wlan[0].mac 	"number of retry for AC 0" 	7221
scalar scenarioPRJP1.node[94].wlan[0].mac 	"number of retry for AC 1" 	6
scalar scenarioPRJP1.node[94].wlan[0].mac 	"number of retry for AC 2" 	0
scalar scenarioPRJP1.node[94].wlan[0].mac 	"number of retry for AC 3" 	0
scalar scenarioPRJP1.node[94].wlan[0].mac 	"sent and received bits" 	14921280
scalar scenarioPRJP1.node[94].wlan[0].mac 	"sent packet within AC 0" 	721
scalar scenarioPRJP1.node[94].wlan[0].mac 	"sent packet within AC 1" 	8
scalar scenarioPRJP1.node[94].wlan[0].mac 	"sent packet within AC 2" 	0
scalar scenarioPRJP1.node[94].wlan[0].mac 	"sent packet within AC 3" 	0
scalar scenarioPRJP1.node[94].wlan[0].mac 	"sent in TXOP " 	0
scalar scenarioPRJP1.node[94].wlan[0].mac 	"sentWithoutRetry AC 0" 	608
scalar scenarioPRJP1.node[94].wlan[0].mac 	"sentWithoutRetry AC 1" 	8
scalar scenarioPRJP1.node[94].wlan[0].mac 	"sentWithoutRetry AC 2" 	0
scalar scenarioPRJP1.node[94].wlan[0].mac 	"sentWithoutRetry AC 3" 	0
scalar scenarioPRJP1.node[94].wlan[0].mac 	"numGivenUp AC 0" 	1168
scalar scenarioPRJP1.node[94].wlan[0].mac 	"numGivenUp AC 1" 	1
scalar scenarioPRJP1.node[94].wlan[0].mac 	"numGivenUp AC 2" 	0
scalar scenarioPRJP1.node[94].wlan[0].mac 	"numGivenUp AC 3" 	0
scalar scenarioPRJP1.node[94].wlan[0].mac 	"numDropped AC 0" 	0
scalar scenarioPRJP1.node[94].wlan[0].mac 	"numDropped AC 1" 	0
scalar scenarioPRJP1.node[94].wlan[0].mac 	"numDropped AC 2" 	0
scalar scenarioPRJP1.node[94].wlan[0].mac 	"numDropped AC 3" 	0
scalar scenarioPRJP1.node[94].wlan[0].mac 	rcvdPkFromHL:count 	19443
attr interpolationmode  none
attr source  packetReceivedFromUpper
attr title  "packets received from higher layer, count"
scalar scenarioPRJP1.node[94].wlan[0].mac 	rcvdPkFromHL:sum(packetBytes) 	2347952
attr interpolationmode  none
attr source  packetReceivedFromUpper
attr title  "packets received from higher layer, sum(packetBytes)"
scalar scenarioPRJP1.node[94].wlan[0].mac 	passedUpPk:count 	87036
attr interpolationmode  none
attr source  packetSentToUpper
attr title  "packets passed to higher layer, count"
scalar scenarioPRJP1.node[94].wlan[0].mac 	passedUpPk:sum(packetBytes) 	8190092
attr interpolationmode  none
attr source  packetSentToUpper
attr title  "packets passed to higher layer, sum(packetBytes)"
scalar scenarioPRJP1.node[94].wlan[0].mac 	rcvdPkFromLL:count 	188026
attr interpolationmode  none
attr source  packetReceivedFromLower
attr title  "packets received from lower layer, count"
scalar scenarioPRJP1.node[94].wlan[0].mac 	rcvdPkFromLL:sum(packetBytes) 	31143988
attr interpolationmode  none
attr source  packetReceivedFromLower
attr title  "packets received from lower layer, sum(packetBytes)"
scalar scenarioPRJP1.node[94].wlan[0].mac 	sentDownPk:count 	31074
attr interpolationmode  none
attr source  packetSentToLower
attr title  "packets sent to lower layer, count"
scalar scenarioPRJP1.node[94].wlan[0].mac 	sentDownPk:sum(packetBytes) 	5411316
attr interpolationmode  none
attr source  packetSentToLower
attr title  "packets sent to lower layer, sum(packetBytes)"
statistic scenarioPRJP1.node[94].wlan[0].radio 	symbolErrorRate:histogram
field count 0
field mean nan
field stddev nan
field sum 0
field sqrsum 0
field min nan
field max nan
attr source  symbolErrorRate
attr title  "Symbol error rate, histogram"
bin	-INF	0
bin	-0.5	0
bin	-0.46666666666667	0
bin	-0.43333333333333	0
bin	-0.4	0
bin	-0.36666666666667	0
bin	-0.33333333333333	0
bin	-0.3	0
bin	-0.26666666666667	0
bin	-0.23333333333333	0
bin	-0.2	0
bin	-0.16666666666667	0
bin	-0.13333333333333	0
bin	-0.1	0
bin	-0.066666666666667	0
bin	-0.033333333333333	0
bin	-6.9388939039072e-018	0
bin	0.033333333333333	0
bin	0.066666666666667	0
bin	0.1	0
bin	0.13333333333333	0
bin	0.16666666666667	0
bin	0.2	0
bin	0.23333333333333	0
bin	0.26666666666667	0
bin	0.3	0
bin	0.33333333333333	0
bin	0.36666666666667	0
bin	0.4	0
bin	0.43333333333333	0
bin	0.46666666666667	0
bin	0.5	0
statistic scenarioPRJP1.node[94].wlan[0].radio 	bitErrorRate:histogram
field count 0
field mean nan
field stddev nan
field sum 0
field sqrsum 0
field min nan
field max nan
attr source  bitErrorRate
attr title  "Bit error rate, histogram"
bin	-INF	0
bin	-0.5	0
bin	-0.46666666666667	0
bin	-0.43333333333333	0
bin	-0.4	0
bin	-0.36666666666667	0
bin	-0.33333333333333	0
bin	-0.3	0
bin	-0.26666666666667	0
bin	-0.23333333333333	0
bin	-0.2	0
bin	-0.16666666666667	0
bin	-0.13333333333333	0
bin	-0.1	0
bin	-0.066666666666667	0
bin	-0.033333333333333	0
bin	-6.9388939039072e-018	0
bin	0.033333333333333	0
bin	0.066666666666667	0
bin	0.1	0
bin	0.13333333333333	0
bin	0.16666666666667	0
bin	0.2	0
bin	0.23333333333333	0
bin	0.26666666666667	0
bin	0.3	0
bin	0.33333333333333	0
bin	0.36666666666667	0
bin	0.4	0
bin	0.43333333333333	0
bin	0.46666666666667	0
bin	0.5	0
statistic scenarioPRJP1.node[94].wlan[0].radio 	packetErrorRate:histogram
field count 188026
field mean 0.13806549617246
field stddev 0.33584170514349
field sum 25959.902983322
field sqrsum 24791.440999027
field min 0
field max 1
attr source  packetErrorRate
attr title  "Packet error rate, histogram"
bin	-INF	0
bin	-0.5	0
bin	-0.43333333333333	0
bin	-0.36666666666667	0
bin	-0.3	0
bin	-0.23333333333333	0
bin	-0.16666666666667	0
bin	-0.1	0
bin	-0.033333333333333	157127
bin	0.033333333333333	2093
bin	0.1	981
bin	0.16666666666667	658
bin	0.23333333333333	481
bin	0.3	442
bin	0.36666666666667	395
bin	0.43333333333333	347
bin	0.5	283
bin	0.56666666666667	295
bin	0.63333333333333	270
bin	0.7	332
bin	0.76666666666667	291
bin	0.83333333333333	370
bin	0.9	603
bin	0.96666666666667	23058
bin	1.0333333333333	0
bin	1.1	0
bin	1.1666666666667	0
bin	1.2333333333333	0
bin	1.3	0
bin	1.3666666666667	0
bin	1.4333333333333	0
bin	1.5	0
statistic scenarioPRJP1.node[94].wlan[0].radio 	minSNIR:histogram
field count 188026
field mean 3413.6384409866
field stddev 34802.281070141
field sum 641852781.50494
field sqrsum 2.2992670162239e+014
field min 0.00018385375683193
field max 3784392.5974401
attr source  minSNIR
attr title  "Min SNIR, histogram"
bin	-INF	0
bin	-1873.7716016393	0
bin	-1623.7671563568	0
bin	-1373.7627110743	0
bin	-1123.7582657918	0
bin	-873.75382050923	0
bin	-623.74937522671	0
bin	-373.74492994418	0
bin	-123.74048466166	122293
bin	126.26396062086	31124
bin	376.26840590339	7863
bin	626.27285118591	3566
bin	876.27729646844	2488
bin	1126.281741751	1704
bin	1376.2861870335	1511
bin	1626.290632316	1165
bin	1876.2950775985	910
bin	2126.2995228811	737
bin	2376.3039681636	728
bin	2626.3084134461	563
bin	2876.3128587286	612
bin	3126.3173040111	501
bin	3376.3217492937	394
bin	3626.3261945762	405
bin	3876.3306398587	313
bin	4126.3350851412	287
bin	4376.3395304238	278
bin	4626.3439757063	263
bin	4876.3484209888	225
bin	5126.3528662713	220
bin	5376.3573115539	173
bin	5626.3617568364	9703
scalar scenarioPRJP1.node[94].wlan[0].radio 	transmissionState:count 	124296
attr interpolationmode  sample-hold
attr source  transmissionStateChanged
attr title  "Radio transmission state, count"
scalar scenarioPRJP1.node[94].wlan[0].radio 	receptionState:count 	442354
attr interpolationmode  sample-hold
attr source  receptionStateChanged
attr title  "Radio reception state, count"
scalar scenarioPRJP1.node[94].wlan[0].radio 	radioMode:count 	62150
attr interpolationmode  sample-hold
attr source  radioModeChanged
attr title  "Radio mode, count"
statistic scenarioPRJP1.node[94].wlan[0].radio 	radioChannel:histogram
field count 1
field mean 3
field stddev nan
field sum 3
field sqrsum 9
field min 3
field max 3
attr interpolationmode  sample-hold
attr source  radioChannelChanged
attr title  "Radio channel, histogram"
bin	-INF	0
bin	2	0
bin	3	1
bin	4	0
scalar scenarioPRJP1.node[94].lo0.lo 	droppedPkBitError:count 	0
attr interpolationmode  none
attr source  dropPkBitError
attr title  "packets dropped/bit error, count"
scalar scenarioPRJP1.node[94].lo0.lo 	droppedPkBitError:sum(packetBytes) 	0
attr interpolationmode  none
attr source  dropPkBitError
attr title  "packets dropped/bit error, sum(packetBytes)"
scalar scenarioPRJP1.node[94].lo0.lo 	rcvdPkFromHL:count 	0
attr interpolationmode  none
attr source  packetReceivedFromUpper
attr title  "packets received from higher layer, count"
scalar scenarioPRJP1.node[94].lo0.lo 	rcvdPkFromHL:sum(packetBytes) 	0
attr interpolationmode  none
attr source  packetReceivedFromUpper
attr title  "packets received from higher layer, sum(packetBytes)"
scalar scenarioPRJP1.node[94].lo0.lo 	passedUpPk:count 	0
attr interpolationmode  none
attr source  packetSentToUpper
attr title  "packets passed to higher layer, count"
scalar scenarioPRJP1.node[94].lo0.lo 	passedUpPk:sum(packetBytes) 	0
attr interpolationmode  none
attr source  packetSentToUpper
attr title  "packets passed to higher layer, sum(packetBytes)"
