version 2
run AODVRouting-FS-100n-0-20150817-18:51:16-7511
attr configname AODVRouting-FS-100n
attr datetime 20150817-18:51:16
attr experiment AODVRouting-FS-100n
attr inifile omnetpp.ini
attr iterationvars ""
attr iterationvars2 $repetition=0
attr measurement ""
attr network Prj_Part1_propag.scenarioPRJP1
attr processid 7511
attr repetition 0
attr replication #0
attr resultdir results
attr runnumber 0
attr seedset 0

scalar scenarioPRJP1.radioMedium.propagation 	"Arrival computation count" 	324417852
scalar scenarioPRJP1.radioMedium 	"transmission count" 	3276948
scalar scenarioPRJP1.radioMedium 	"radio frame send count" 	324417852
scalar scenarioPRJP1.radioMedium 	"reception computation count" 	323096065
scalar scenarioPRJP1.radioMedium 	"interference computation count" 	899666939
scalar scenarioPRJP1.radioMedium 	"reception decision computation count" 	21592338
scalar scenarioPRJP1.radioMedium 	"listening decision computation count" 	558560524
scalar scenarioPRJP1.radioMedium 	"reception cache hit" 	85.689159471295
attr unit  %
scalar scenarioPRJP1.radioMedium 	"interference cache hit" 	50
attr unit  %
scalar scenarioPRJP1.radioMedium 	"noise cache hit" 	0
attr unit  %
scalar scenarioPRJP1.radioMedium 	"snir cache hit" 	0
attr unit  %
scalar scenarioPRJP1.radioMedium 	"reception decision cache hit" 	0
attr unit  %
scalar scenarioPRJP1.node[0].app 	"Total sent" 	2613
scalar scenarioPRJP1.node[0].app 	"Total received" 	145
scalar scenarioPRJP1.node[0].app 	"Total deleted" 	84
scalar scenarioPRJP1.node[0].app 	dropPk:count 	84
attr interpolationmode  none
attr source  dropPk
attr title  "packets dropped, count"
scalar scenarioPRJP1.node[0].app 	dropPk:sum(packetBytes) 	43008
attr interpolationmode  none
attr source  dropPk
attr title  "packets dropped, sum(packetBytes)"
scalar scenarioPRJP1.node[0].app 	outOfOrderPk:count 	20
attr interpolationmode  none
attr source  outOfOrderPk
attr title  "packets received out of order, count"
scalar scenarioPRJP1.node[0].app 	outOfOrderPk:sum(packetBytes) 	10240
attr interpolationmode  none
attr source  outOfOrderPk
attr title  "packets received out of order, sum(packetBytes)"
scalar scenarioPRJP1.node[0].app 	rcvdPk:count 	145
attr interpolationmode  none
attr source  rcvdPk
attr title  "packets received, count"
scalar scenarioPRJP1.node[0].app 	rcvdPk:sum(packetBytes) 	74240
attr interpolationmode  none
attr source  rcvdPk
attr title  "packets received, sum(packetBytes)"
statistic scenarioPRJP1.node[0].app 	endToEndDelay:histogram
field count 145
field mean 1.1274825648967
field stddev 3.5437203233763
field sum 163.48497191002
field sqrsum 1992.6717926158
field min 0.000945022685
field max 19.305586087813
attr interpolationmode  none
attr source  messageAge(rcvdPk)
attr title  "delay, histogram"
attr unit  s
bin	-INF	0
bin	-9.651375509879	0
bin	-8.3643994388705	0
bin	-7.0774233678619	0
bin	-5.7904472968534	0
bin	-4.5034712258449	0
bin	-3.2164951548363	0
bin	-1.9295190838278	0
bin	-0.64254301281927	120
bin	0.64443305818927	10
bin	1.9314091291978	3
bin	3.2183852002063	1
bin	4.5053612712149	0
bin	5.7923373422234	1
bin	7.0793134132319	2
bin	8.3662894842405	1
bin	9.653265555249	0
bin	10.940241626258	2
bin	12.227217697266	1
bin	13.514193768275	1
bin	14.801169839283	0
bin	16.088145910292	0
bin	17.3751219813	1
bin	18.662098052309	2
bin	19.949074123317	0
bin	21.236050194326	0
bin	22.523026265334	0
bin	23.810002336343	0
bin	25.096978407351	0
bin	26.38395447836	0
bin	27.670930549368	0
bin	28.957906620377	0
scalar scenarioPRJP1.node[0].app 	sentPk:count 	2613
attr interpolationmode  none
attr source  sentPk
attr title  "packets sent, count"
scalar scenarioPRJP1.node[0].app 	sentPk:sum(packetBytes) 	1337856
attr interpolationmode  none
attr source  sentPk
attr title  "packets sent, sum(packetBytes)"
scalar scenarioPRJP1.node[0].udp 	droppedPkBadChecksum:count 	0
attr interpolationmode  none
attr title  "packets dropped (checksum error), count"
scalar scenarioPRJP1.node[0].udp 	droppedPkWrongPort:count 	0
attr interpolationmode  none
attr title  "packets dropped (wrong port), count"
scalar scenarioPRJP1.node[0].udp 	passedUpPk:count 	249
attr interpolationmode  none
attr title  "packets passed up, count"
scalar scenarioPRJP1.node[0].udp 	rcvdPk:count 	249
attr interpolationmode  none
attr source  rcvdPk
attr title  "packets received, count"
scalar scenarioPRJP1.node[0].udp 	rcvdPk:sum(packetBytes) 	129480
attr interpolationmode  none
attr source  rcvdPk
attr title  "packets received, sum(packetBytes)"
scalar scenarioPRJP1.node[0].udp 	sentPk:count 	2613
attr interpolationmode  none
attr source  sentPk
attr title  "packets sent, count"
scalar scenarioPRJP1.node[0].udp 	sentPk:sum(packetBytes) 	1358760
attr interpolationmode  none
attr source  sentPk
attr title  "packets sent, sum(packetBytes)"
scalar scenarioPRJP1.node[0].networkLayer.arp 	failedARPResolution:count 	11
attr title  "ARP failed resolutions, count"
scalar scenarioPRJP1.node[0].networkLayer.arp 	completedARPResolution:count 	834
attr title  "ARP completed resolutions, count"
scalar scenarioPRJP1.node[0].networkLayer.arp 	initiatedARPResolution:count 	106
attr title  "ARP initiated resolutions, count"
scalar scenarioPRJP1.node[0].networkLayer.arp 	sentReply:count 	71
attr title  "ARP replies sent, count"
scalar scenarioPRJP1.node[0].networkLayer.arp 	sentReq:count 	167
attr title  "ARP request sent, count"
scalar scenarioPRJP1.node[0].mobility 	startTime 	0.1
scalar scenarioPRJP1.node[0].mobility 	totalTime 	949.8
scalar scenarioPRJP1.node[0].mobility 	stopTime 	950
scalar scenarioPRJP1.node[0].mobility 	minSpeed 	2.4754779262355e-13
scalar scenarioPRJP1.node[0].mobility 	maxSpeed 	16.158275490115
scalar scenarioPRJP1.node[0].mobility 	totalDistance 	9913.8730279003
scalar scenarioPRJP1.node[0].mobility 	totalCO2Emission 	2471.3670076294
scalar scenarioPRJP1.node[0].wlan[0].mgmt 	dataQueueLen:max 	18
attr interpolationmode  sample-hold
attr title  "data queue length, max"
scalar scenarioPRJP1.node[0].wlan[0].mgmt 	dataQueueLen:timeavg 	0
attr interpolationmode  sample-hold
attr title  "data queue length, timeavg"
scalar scenarioPRJP1.node[0].wlan[0].mgmt 	dropPkByQueue:count 	0
attr interpolationmode  none
attr source  dropPkByQueue
attr title  "packets dropped by queue, count"
scalar scenarioPRJP1.node[0].wlan[0].mgmt 	dropPkByQueue:sum(packetBytes) 	0
attr interpolationmode  none
attr source  dropPkByQueue
attr title  "packets dropped by queue, sum(packetBytes)"
scalar scenarioPRJP1.node[0].wlan[0].mac 	"number of received packets" 	11609
scalar scenarioPRJP1.node[0].wlan[0].mac 	"number of collisions" 	44485
scalar scenarioPRJP1.node[0].wlan[0].mac 	"number of internal collisions" 	0
scalar scenarioPRJP1.node[0].wlan[0].mac 	"number of retry for AC 0" 	8749
scalar scenarioPRJP1.node[0].wlan[0].mac 	"number of retry for AC 1" 	0
scalar scenarioPRJP1.node[0].wlan[0].mac 	"number of retry for AC 2" 	0
scalar scenarioPRJP1.node[0].wlan[0].mac 	"number of retry for AC 3" 	0
scalar scenarioPRJP1.node[0].wlan[0].mac 	"sent and received bits" 	21174816
scalar scenarioPRJP1.node[0].wlan[0].mac 	"sent packet within AC 0" 	7884
scalar scenarioPRJP1.node[0].wlan[0].mac 	"sent packet within AC 1" 	0
scalar scenarioPRJP1.node[0].wlan[0].mac 	"sent packet within AC 2" 	0
scalar scenarioPRJP1.node[0].wlan[0].mac 	"sent packet within AC 3" 	0
scalar scenarioPRJP1.node[0].wlan[0].mac 	"sent in TXOP " 	0
scalar scenarioPRJP1.node[0].wlan[0].mac 	"sentWithoutRetry AC 0" 	7499
scalar scenarioPRJP1.node[0].wlan[0].mac 	"sentWithoutRetry AC 1" 	0
scalar scenarioPRJP1.node[0].wlan[0].mac 	"sentWithoutRetry AC 2" 	0
scalar scenarioPRJP1.node[0].wlan[0].mac 	"sentWithoutRetry AC 3" 	0
scalar scenarioPRJP1.node[0].wlan[0].mac 	"numGivenUp AC 0" 	1372
scalar scenarioPRJP1.node[0].wlan[0].mac 	"numGivenUp AC 1" 	0
scalar scenarioPRJP1.node[0].wlan[0].mac 	"numGivenUp AC 2" 	0
scalar scenarioPRJP1.node[0].wlan[0].mac 	"numGivenUp AC 3" 	0
scalar scenarioPRJP1.node[0].wlan[0].mac 	"numDropped AC 0" 	0
scalar scenarioPRJP1.node[0].wlan[0].mac 	"numDropped AC 1" 	0
scalar scenarioPRJP1.node[0].wlan[0].mac 	"numDropped AC 2" 	0
scalar scenarioPRJP1.node[0].wlan[0].mac 	"numDropped AC 3" 	0
scalar scenarioPRJP1.node[0].wlan[0].mac 	rcvdPkFromLL:count 	265585
attr interpolationmode  none
attr source  packetReceivedFromLower
attr title  "packets received from lower layer, count"
scalar scenarioPRJP1.node[0].wlan[0].mac 	rcvdPkFromLL:sum(packetBytes) 	41103288
attr interpolationmode  none
attr source  packetReceivedFromLower
attr title  "packets received from lower layer, sum(packetBytes)"
scalar scenarioPRJP1.node[0].wlan[0].mac 	sentDownPk:count 	49278
attr interpolationmode  none
attr source  packetSentToLower
attr title  "packets sent to lower layer, count"
scalar scenarioPRJP1.node[0].wlan[0].mac 	sentDownPk:sum(packetBytes) 	6738722
attr interpolationmode  none
attr source  packetSentToLower
attr title  "packets sent to lower layer, sum(packetBytes)"
scalar scenarioPRJP1.node[0].wlan[0].mac 	rcvdPkFromHL:count 	28920
attr interpolationmode  none
attr source  packetReceivedFromUpper
attr title  "packets received from higher layer, count"
scalar scenarioPRJP1.node[0].wlan[0].mac 	rcvdPkFromHL:sum(packetBytes) 	3193900
attr interpolationmode  none
attr source  packetReceivedFromUpper
attr title  "packets received from higher layer, sum(packetBytes)"
scalar scenarioPRJP1.node[0].wlan[0].mac 	passedUpPk:count 	115307
attr interpolationmode  none
attr source  packetSentToUpper
attr title  "packets passed to higher layer, count"
scalar scenarioPRJP1.node[0].wlan[0].mac 	passedUpPk:sum(packetBytes) 	10712796
attr interpolationmode  none
attr source  packetSentToUpper
attr title  "packets passed to higher layer, sum(packetBytes)"
statistic scenarioPRJP1.node[0].wlan[0].radio 	radioChannel:histogram
field count 1
field mean 3
field stddev -nan
field sum 3
field sqrsum 9
field min 3
field max 3
attr interpolationmode  sample-hold
attr source  radioChannelChanged
attr title  "Radio channel, histogram"
bin	-INF	0
bin	2	0
bin	3	1
bin	4	0
scalar scenarioPRJP1.node[0].wlan[0].radio 	transmissionState:count 	197112
attr interpolationmode  sample-hold
attr source  transmissionStateChanged
attr title  "Radio transmission state, count"
scalar scenarioPRJP1.node[0].wlan[0].radio 	receptionState:count 	636230
attr interpolationmode  sample-hold
attr source  receptionStateChanged
attr title  "Radio reception state, count"
scalar scenarioPRJP1.node[0].wlan[0].radio 	radioMode:count 	98558
attr interpolationmode  sample-hold
attr source  radioModeChanged
attr title  "Radio mode, count"
statistic scenarioPRJP1.node[0].wlan[0].radio 	symbolErrorRate:histogram
field count 0
field mean -nan
field stddev -nan
field sum 0
field sqrsum 0
field min -nan
field max -nan
attr source  symbolErrorRate
attr title  "Symbol error rate, histogram"
bin	-INF	0
bin	-0.5	0
bin	-0.46666666666667	0
bin	-0.43333333333333	0
bin	-0.4	0
bin	-0.36666666666667	0
bin	-0.33333333333333	0
bin	-0.3	0
bin	-0.26666666666667	0
bin	-0.23333333333333	0
bin	-0.2	0
bin	-0.16666666666667	0
bin	-0.13333333333333	0
bin	-0.1	0
bin	-0.066666666666667	0
bin	-0.033333333333333	0
bin	0	0
bin	0.033333333333333	0
bin	0.066666666666667	0
bin	0.1	0
bin	0.13333333333333	0
bin	0.16666666666667	0
bin	0.2	0
bin	0.23333333333333	0
bin	0.26666666666667	0
bin	0.3	0
bin	0.33333333333333	0
bin	0.36666666666667	0
bin	0.4	0
bin	0.43333333333333	0
bin	0.46666666666667	0
bin	0.5	0
statistic scenarioPRJP1.node[0].wlan[0].radio 	bitErrorRate:histogram
field count 0
field mean -nan
field stddev -nan
field sum 0
field sqrsum 0
field min -nan
field max -nan
attr source  bitErrorRate
attr title  "Bit error rate, histogram"
bin	-INF	0
bin	-0.5	0
bin	-0.46666666666667	0
bin	-0.43333333333333	0
bin	-0.4	0
bin	-0.36666666666667	0
bin	-0.33333333333333	0
bin	-0.3	0
bin	-0.26666666666667	0
bin	-0.23333333333333	0
bin	-0.2	0
bin	-0.16666666666667	0
bin	-0.13333333333333	0
bin	-0.1	0
bin	-0.066666666666667	0
bin	-0.033333333333333	0
bin	0	0
bin	0.033333333333333	0
bin	0.066666666666667	0
bin	0.1	0
bin	0.13333333333333	0
bin	0.16666666666667	0
bin	0.2	0
bin	0.23333333333333	0
bin	0.26666666666667	0
bin	0.3	0
bin	0.33333333333333	0
bin	0.36666666666667	0
bin	0.4	0
bin	0.43333333333333	0
bin	0.46666666666667	0
bin	0.5	0
statistic scenarioPRJP1.node[0].wlan[0].radio 	packetErrorRate:histogram
field count 265585
field mean 0.14140653996076
field stddev 0.33903505652882
field sum 37555.455915477
field sqrsum 35838.078755285
field min 0
field max 1
attr source  packetErrorRate
attr title  "Packet error rate, histogram"
bin	-INF	0
bin	-0.40889282850783	0
bin	-0.35437378470678	0
bin	-0.29985474090574	0
bin	-0.2453356971047	0
bin	-0.19081665330365	0
bin	-0.13629760950261	0
bin	-0.081778565701565	0
bin	-0.027259521900522	220161
bin	0.027259521900522	3115
bin	0.081778565701565	1431
bin	0.13629760950261	963
bin	0.19081665330365	752
bin	0.2453356971047	604
bin	0.29985474090574	491
bin	0.35437378470678	476
bin	0.40889282850783	425
bin	0.46341187230887	404
bin	0.51793091610991	298
bin	0.57244995991096	342
bin	0.626969003712	368
bin	0.68148804751304	343
bin	0.73600709131409	380
bin	0.79052613511513	420
bin	0.84504517891617	478
bin	0.89956422271722	643
bin	0.95408326651826	33491
bin	1.0086023103193	0
bin	1.0631213541203	0
bin	1.1176403979214	0
bin	1.1721594417224	0
bin	1.2266784855235	0
statistic scenarioPRJP1.node[0].wlan[0].radio 	minSNIR:histogram
field count 265585
field mean 5445.6202863521
field stddev 38749.795983657
field sum 1446275063.7508
field sqrsum 4.0666264061844e+14
field min 0.00021801584103057
field max 4892293.7241504
attr source  minSNIR
attr title  "Min SNIR, histogram"
bin	-INF	0
bin	-38.762132912616	0
bin	-33.36445229234	0
bin	-27.966771672065	0
bin	-22.569091051789	0
bin	-17.171410431513	0
bin	-11.773729811237	0
bin	-6.3760491909617	0
bin	-0.97836857068599	62857
bin	4.4193120495897	38866
bin	9.8169926698654	18351
bin	15.214673290141	11191
bin	20.612353910417	7521
bin	26.010034530693	5405
bin	31.407715150968	4337
bin	36.805395771244	3335
bin	42.20307639152	2704
bin	47.600757011795	2232
bin	52.998437632071	1924
bin	58.396118252347	1702
bin	63.793798872623	1455
bin	69.191479492898	1339
bin	74.589160113174	1191
bin	79.98684073345	1034
bin	85.384521353726	1000
bin	90.782201974001	917
bin	96.179882594277	834
bin	101.57756321455	759
bin	106.97524383483	715
bin	112.3729244551	659
bin	117.77060507538	693
bin	123.16828569566	94564
scalar scenarioPRJP1.node[0].lo0.lo 	droppedPkBitError:count 	0
attr interpolationmode  none
attr source  dropPkBitError
attr title  "packets dropped/bit error, count"
scalar scenarioPRJP1.node[0].lo0.lo 	droppedPkBitError:sum(packetBytes) 	0
attr interpolationmode  none
attr source  dropPkBitError
attr title  "packets dropped/bit error, sum(packetBytes)"
scalar scenarioPRJP1.node[0].lo0.lo 	rcvdPkFromHL:count 	0
attr interpolationmode  none
attr source  packetReceivedFromUpper
attr title  "packets received from higher layer, count"
scalar scenarioPRJP1.node[0].lo0.lo 	rcvdPkFromHL:sum(packetBytes) 	0
attr interpolationmode  none
attr source  packetReceivedFromUpper
attr title  "packets received from higher layer, sum(packetBytes)"
scalar scenarioPRJP1.node[0].lo0.lo 	passedUpPk:count 	0
attr interpolationmode  none
attr source  packetSentToUpper
attr title  "packets passed to higher layer, count"
scalar scenarioPRJP1.node[0].lo0.lo 	passedUpPk:sum(packetBytes) 	0
attr interpolationmode  none
attr source  packetSentToUpper
attr title  "packets passed to higher layer, sum(packetBytes)"
scalar scenarioPRJP1.node[21].app 	"Total sent" 	2623
scalar scenarioPRJP1.node[21].app 	"Total received" 	160
scalar scenarioPRJP1.node[21].app 	"Total deleted" 	133
scalar scenarioPRJP1.node[21].app 	dropPk:count 	133
attr interpolationmode  none
attr source  dropPk
attr title  "packets dropped, count"
scalar scenarioPRJP1.node[21].app 	dropPk:sum(packetBytes) 	68096
attr interpolationmode  none
attr source  dropPk
attr title  "packets dropped, sum(packetBytes)"
scalar scenarioPRJP1.node[21].app 	outOfOrderPk:count 	16
attr interpolationmode  none
attr source  outOfOrderPk
attr title  "packets received out of order, count"
scalar scenarioPRJP1.node[21].app 	outOfOrderPk:sum(packetBytes) 	8192
attr interpolationmode  none
attr source  outOfOrderPk
attr title  "packets received out of order, sum(packetBytes)"
scalar scenarioPRJP1.node[21].app 	rcvdPk:count 	160
attr interpolationmode  none
attr source  rcvdPk
attr title  "packets received, count"
scalar scenarioPRJP1.node[21].app 	rcvdPk:sum(packetBytes) 	81920
attr interpolationmode  none
attr source  rcvdPk
attr title  "packets received, sum(packetBytes)"
statistic scenarioPRJP1.node[21].app 	endToEndDelay:histogram
field count 160
field mean 1.3328960220396
field stddev 3.8553669798582
field sum 213.26336352633
field sqrsum 2647.6107622426
field min 0.000945223654
field max 19.658556202389
attr interpolationmode  none
attr source  messageAge(rcvdPk)
attr title  "delay, histogram"
attr unit  s
bin	-INF	0
bin	-9.8278602657135	0
bin	-8.5173528671312	0
bin	-7.2068454685488	0
bin	-5.8963380699665	0
bin	-4.5858306713842	0
bin	-3.2753232728018	0
bin	-1.9648158742195	0
bin	-0.65430847563717	131
bin	0.65619892294517	9
bin	1.9667063215275	4
bin	3.2772137201098	1
bin	4.5877211186922	1
bin	5.8982285172745	1
bin	7.2087359158568	0
bin	8.5192433144392	2
bin	9.8297507130215	3
bin	11.140258111604	1
bin	12.450765510186	1
bin	13.761272908769	2
bin	15.071780307351	0
bin	16.382287705933	2
bin	17.692795104516	0
bin	19.003302503098	2
bin	20.31380990168	0
bin	21.624317300263	0
bin	22.934824698845	0
bin	24.245332097427	0
bin	25.55583949601	0
bin	26.866346894592	0
bin	28.176854293174	0
bin	29.487361691757	0
scalar scenarioPRJP1.node[21].app 	sentPk:count 	2623
attr interpolationmode  none
attr source  sentPk
attr title  "packets sent, count"
scalar scenarioPRJP1.node[21].app 	sentPk:sum(packetBytes) 	1342976
attr interpolationmode  none
attr source  sentPk
attr title  "packets sent, sum(packetBytes)"
scalar scenarioPRJP1.node[21].udp 	droppedPkBadChecksum:count 	0
attr interpolationmode  none
attr title  "packets dropped (checksum error), count"
scalar scenarioPRJP1.node[21].udp 	droppedPkWrongPort:count 	0
attr interpolationmode  none
attr title  "packets dropped (wrong port), count"
scalar scenarioPRJP1.node[21].udp 	passedUpPk:count 	309
attr interpolationmode  none
attr title  "packets passed up, count"
scalar scenarioPRJP1.node[21].udp 	rcvdPk:count 	309
attr interpolationmode  none
attr source  rcvdPk
attr title  "packets received, count"
scalar scenarioPRJP1.node[21].udp 	rcvdPk:sum(packetBytes) 	160680
attr interpolationmode  none
attr source  rcvdPk
attr title  "packets received, sum(packetBytes)"
scalar scenarioPRJP1.node[21].udp 	sentPk:count 	2623
attr interpolationmode  none
attr source  sentPk
attr title  "packets sent, count"
scalar scenarioPRJP1.node[21].udp 	sentPk:sum(packetBytes) 	1363960
attr interpolationmode  none
attr source  sentPk
attr title  "packets sent, sum(packetBytes)"
scalar scenarioPRJP1.node[21].networkLayer.arp 	failedARPResolution:count 	8
attr title  "ARP failed resolutions, count"
scalar scenarioPRJP1.node[21].networkLayer.arp 	completedARPResolution:count 	754
attr title  "ARP completed resolutions, count"
scalar scenarioPRJP1.node[21].networkLayer.arp 	initiatedARPResolution:count 	80
attr title  "ARP initiated resolutions, count"
scalar scenarioPRJP1.node[21].networkLayer.arp 	sentReply:count 	71
attr title  "ARP replies sent, count"
scalar scenarioPRJP1.node[21].networkLayer.arp 	sentReq:count 	125
attr title  "ARP request sent, count"
scalar scenarioPRJP1.node[21].mobility 	startTime 	2.5
scalar scenarioPRJP1.node[21].mobility 	totalTime 	947.4
scalar scenarioPRJP1.node[21].mobility 	stopTime 	950
scalar scenarioPRJP1.node[21].mobility 	minSpeed 	2.4754212916727e-13
scalar scenarioPRJP1.node[21].mobility 	maxSpeed 	13.120366395069
scalar scenarioPRJP1.node[21].mobility 	totalDistance 	7322.6244406602
scalar scenarioPRJP1.node[21].mobility 	totalCO2Emission 	1956.9555971172
scalar scenarioPRJP1.node[21].wlan[0].mgmt 	dataQueueLen:max 	21
attr interpolationmode  sample-hold
attr title  "data queue length, max"
scalar scenarioPRJP1.node[21].wlan[0].mgmt 	dataQueueLen:timeavg 	0
attr interpolationmode  sample-hold
attr title  "data queue length, timeavg"
scalar scenarioPRJP1.node[21].wlan[0].mgmt 	dropPkByQueue:count 	0
attr interpolationmode  none
attr source  dropPkByQueue
attr title  "packets dropped by queue, count"
scalar scenarioPRJP1.node[21].wlan[0].mgmt 	dropPkByQueue:sum(packetBytes) 	0
attr interpolationmode  none
attr source  dropPkByQueue
attr title  "packets dropped by queue, sum(packetBytes)"
scalar scenarioPRJP1.node[21].wlan[0].mac 	"number of received packets" 	4850
scalar scenarioPRJP1.node[21].wlan[0].mac 	"number of collisions" 	33821
scalar scenarioPRJP1.node[21].wlan[0].mac 	"number of internal collisions" 	3
scalar scenarioPRJP1.node[21].wlan[0].mac 	"number of retry for AC 0" 	8536
scalar scenarioPRJP1.node[21].wlan[0].mac 	"number of retry for AC 1" 	210
scalar scenarioPRJP1.node[21].wlan[0].mac 	"number of retry for AC 2" 	0
scalar scenarioPRJP1.node[21].wlan[0].mac 	"number of retry for AC 3" 	0
scalar scenarioPRJP1.node[21].wlan[0].mac 	"sent and received bits" 	16553952
scalar scenarioPRJP1.node[21].wlan[0].mac 	"sent packet within AC 0" 	840
scalar scenarioPRJP1.node[21].wlan[0].mac 	"sent packet within AC 1" 	11
scalar scenarioPRJP1.node[21].wlan[0].mac 	"sent packet within AC 2" 	0
scalar scenarioPRJP1.node[21].wlan[0].mac 	"sent packet within AC 3" 	0
scalar scenarioPRJP1.node[21].wlan[0].mac 	"sent in TXOP " 	0
scalar scenarioPRJP1.node[21].wlan[0].mac 	"sentWithoutRetry AC 0" 	696
scalar scenarioPRJP1.node[21].wlan[0].mac 	"sentWithoutRetry AC 1" 	11
scalar scenarioPRJP1.node[21].wlan[0].mac 	"sentWithoutRetry AC 2" 	0
scalar scenarioPRJP1.node[21].wlan[0].mac 	"sentWithoutRetry AC 3" 	0
scalar scenarioPRJP1.node[21].wlan[0].mac 	"numGivenUp AC 0" 	1377
scalar scenarioPRJP1.node[21].wlan[0].mac 	"numGivenUp AC 1" 	35
scalar scenarioPRJP1.node[21].wlan[0].mac 	"numGivenUp AC 2" 	0
scalar scenarioPRJP1.node[21].wlan[0].mac 	"numGivenUp AC 3" 	0
scalar scenarioPRJP1.node[21].wlan[0].mac 	"numDropped AC 0" 	0
scalar scenarioPRJP1.node[21].wlan[0].mac 	"numDropped AC 1" 	0
scalar scenarioPRJP1.node[21].wlan[0].mac 	"numDropped AC 2" 	0
scalar scenarioPRJP1.node[21].wlan[0].mac 	"numDropped AC 3" 	0
scalar scenarioPRJP1.node[21].wlan[0].mac 	rcvdPkFromLL:count 	202513
attr interpolationmode  none
attr source  packetReceivedFromLower
attr title  "packets received from lower layer, count"
scalar scenarioPRJP1.node[21].wlan[0].mac 	rcvdPkFromLL:sum(packetBytes) 	34088684
attr interpolationmode  none
attr source  packetReceivedFromLower
attr title  "packets received from lower layer, sum(packetBytes)"
scalar scenarioPRJP1.node[21].wlan[0].mac 	sentDownPk:count 	35101
attr interpolationmode  none
attr source  packetSentToLower
attr title  "packets sent to lower layer, count"
scalar scenarioPRJP1.node[21].wlan[0].mac 	sentDownPk:sum(packetBytes) 	6405284
attr interpolationmode  none
attr source  packetSentToLower
attr title  "packets sent to lower layer, sum(packetBytes)"
scalar scenarioPRJP1.node[21].wlan[0].mac 	rcvdPkFromHL:count 	21508
attr interpolationmode  none
attr source  packetReceivedFromUpper
attr title  "packets received from higher layer, count"
scalar scenarioPRJP1.node[21].wlan[0].mac 	rcvdPkFromHL:sum(packetBytes) 	2660196
attr interpolationmode  none
attr source  packetReceivedFromUpper
attr title  "packets received from higher layer, sum(packetBytes)"
scalar scenarioPRJP1.node[21].wlan[0].mac 	passedUpPk:count 	99756
attr interpolationmode  none
attr source  packetSentToUpper
attr title  "packets passed to higher layer, count"
scalar scenarioPRJP1.node[21].wlan[0].mac 	passedUpPk:sum(packetBytes) 	9435528
attr interpolationmode  none
attr source  packetSentToUpper
attr title  "packets passed to higher layer, sum(packetBytes)"
statistic scenarioPRJP1.node[21].wlan[0].radio 	radioChannel:histogram
field count 1
field mean 3
field stddev -nan
field sum 3
field sqrsum 9
field min 3
field max 3
attr interpolationmode  sample-hold
attr source  radioChannelChanged
attr title  "Radio channel, histogram"
bin	-INF	0
bin	2	0
bin	3	1
bin	4	0
scalar scenarioPRJP1.node[21].wlan[0].radio 	transmissionState:count 	140404
attr interpolationmode  sample-hold
attr source  transmissionStateChanged
attr title  "Radio transmission state, count"
scalar scenarioPRJP1.node[21].wlan[0].radio 	receptionState:count 	479206
attr interpolationmode  sample-hold
attr source  receptionStateChanged
attr title  "Radio reception state, count"
scalar scenarioPRJP1.node[21].wlan[0].radio 	radioMode:count 	70204
attr interpolationmode  sample-hold
attr source  radioModeChanged
attr title  "Radio mode, count"
statistic scenarioPRJP1.node[21].wlan[0].radio 	symbolErrorRate:histogram
field count 0
field mean -nan
field stddev -nan
field sum 0
field sqrsum 0
field min -nan
field max -nan
attr source  symbolErrorRate
attr title  "Symbol error rate, histogram"
bin	-INF	0
bin	-0.5	0
bin	-0.46666666666667	0
bin	-0.43333333333333	0
bin	-0.4	0
bin	-0.36666666666667	0
bin	-0.33333333333333	0
bin	-0.3	0
bin	-0.26666666666667	0
bin	-0.23333333333333	0
bin	-0.2	0
bin	-0.16666666666667	0
bin	-0.13333333333333	0
bin	-0.1	0
bin	-0.066666666666667	0
bin	-0.033333333333333	0
bin	0	0
bin	0.033333333333333	0
bin	0.066666666666667	0
bin	0.1	0
bin	0.13333333333333	0
bin	0.16666666666667	0
bin	0.2	0
bin	0.23333333333333	0
bin	0.26666666666667	0
bin	0.3	0
bin	0.33333333333333	0
bin	0.36666666666667	0
bin	0.4	0
bin	0.43333333333333	0
bin	0.46666666666667	0
bin	0.5	0
statistic scenarioPRJP1.node[21].wlan[0].radio 	bitErrorRate:histogram
field count 0
field mean -nan
field stddev -nan
field sum 0
field sqrsum 0
field min -nan
field max -nan
attr source  bitErrorRate
attr title  "Bit error rate, histogram"
bin	-INF	0
bin	-0.5	0
bin	-0.46666666666667	0
bin	-0.43333333333333	0
bin	-0.4	0
bin	-0.36666666666667	0
bin	-0.33333333333333	0
bin	-0.3	0
bin	-0.26666666666667	0
bin	-0.23333333333333	0
bin	-0.2	0
bin	-0.16666666666667	0
bin	-0.13333333333333	0
bin	-0.1	0
bin	-0.066666666666667	0
bin	-0.033333333333333	0
bin	0	0
bin	0.033333333333333	0
bin	0.066666666666667	0
bin	0.1	0
bin	0.13333333333333	0
bin	0.16666666666667	0
bin	0.2	0
bin	0.23333333333333	0
bin	0.26666666666667	0
bin	0.3	0
bin	0.33333333333333	0
bin	0.36666666666667	0
bin	0.4	0
bin	0.43333333333333	0
bin	0.46666666666667	0
bin	0.5	0
statistic scenarioPRJP1.node[21].wlan[0].radio 	packetErrorRate:histogram
field count 202513
field mean 0.13891880484296
field stddev 0.33561494930914
field sum 28132.863925161
field sqrsum 26718.607807478
field min 0
field max 1
attr source  packetErrorRate
attr title  "Packet error rate, histogram"
bin	-INF	0
bin	-2.1164662344919e-07	0
bin	-1.8342707365597e-07	0
bin	-1.5520752386274e-07	0
bin	-1.2698797406951e-07	0
bin	-9.8768424276289e-08	0
bin	-7.0548874483064e-08	0
bin	-4.2329324689838e-08	0
bin	-1.4109774896613e-08	139510
bin	1.4109774896613e-08	1772
bin	4.2329324689838e-08	831
bin	7.0548874483064e-08	570
bin	9.8768424276289e-08	403
bin	1.2698797406951e-07	296
bin	1.5520752386274e-07	305
bin	1.8342707365597e-07	257
bin	2.1164662344919e-07	212
bin	2.3986617324242e-07	180
bin	2.6808572303564e-07	161
bin	2.9630527282887e-07	156
bin	3.2452482262209e-07	139
bin	3.5274437241532e-07	121
bin	3.8096392220854e-07	118
bin	4.0918347200177e-07	103
bin	4.3740302179499e-07	98
bin	4.6562257158822e-07	113
bin	4.9384212138145e-07	112
bin	5.2206167117467e-07	83
bin	5.502812209679e-07	98
bin	5.7850077076112e-07	77
bin	6.0672032055435e-07	78
bin	6.3493987034757e-07	56720
statistic scenarioPRJP1.node[21].wlan[0].radio 	minSNIR:histogram
field count 202513
field mean 3474.8685402998
field stddev 37836.461864612
field sum 703706052.70174
field sqrsum 2.9236102910084e+14
field min 0.00037420734507205
field max 3444419.6425871
attr source  minSNIR
attr title  "Min SNIR, histogram"
bin	-INF	0
bin	-1743.6715734896	0
bin	-1510.6285132285	0
bin	-1277.5854529675	0
bin	-1044.5423927064	0
bin	-811.49933244534	0
bin	-578.45627218427	0
bin	-345.41321192321	0
bin	-112.37015166214	141777
bin	120.67290859893	24873
bin	353.71596886	7806
bin	586.75902912106	3931
bin	819.80208938213	2635
bin	1052.8451496432	2032
bin	1285.8882099043	1456
bin	1518.9312701653	1317
bin	1751.9743304264	1016
bin	1985.0173906875	876
bin	2218.0604509485	768
bin	2451.1035112096	661
bin	2684.1465714707	588
bin	2917.1896317317	554
bin	3150.2326919928	478
bin	3383.2757522539	383
bin	3616.3188125149	300
bin	3849.361872776	257
bin	4082.4049330371	254
bin	4315.4479932981	228
bin	4548.4910535592	240
bin	4781.5341138203	208
bin	5014.5771740813	195
bin	5247.6202343424	9680
scalar scenarioPRJP1.node[21].lo0.lo 	droppedPkBitError:count 	0
attr interpolationmode  none
attr source  dropPkBitError
attr title  "packets dropped/bit error, count"
scalar scenarioPRJP1.node[21].lo0.lo 	droppedPkBitError:sum(packetBytes) 	0
attr interpolationmode  none
attr source  dropPkBitError
attr title  "packets dropped/bit error, sum(packetBytes)"
scalar scenarioPRJP1.node[21].lo0.lo 	rcvdPkFromHL:count 	0
attr interpolationmode  none
attr source  packetReceivedFromUpper
attr title  "packets received from higher layer, count"
scalar scenarioPRJP1.node[21].lo0.lo 	rcvdPkFromHL:sum(packetBytes) 	0
attr interpolationmode  none
attr source  packetReceivedFromUpper
attr title  "packets received from higher layer, sum(packetBytes)"
scalar scenarioPRJP1.node[21].lo0.lo 	passedUpPk:count 	0
attr interpolationmode  none
attr source  packetSentToUpper
attr title  "packets passed to higher layer, count"
scalar scenarioPRJP1.node[21].lo0.lo 	passedUpPk:sum(packetBytes) 	0
attr interpolationmode  none
attr source  packetSentToUpper
attr title  "packets passed to higher layer, sum(packetBytes)"
scalar scenarioPRJP1.node[41].app 	"Total sent" 	2613
scalar scenarioPRJP1.node[41].app 	"Total received" 	137
scalar scenarioPRJP1.node[41].app 	"Total deleted" 	41
scalar scenarioPRJP1.node[41].app 	dropPk:count 	41
attr interpolationmode  none
attr source  dropPk
attr title  "packets dropped, count"
scalar scenarioPRJP1.node[41].app 	dropPk:sum(packetBytes) 	20992
attr interpolationmode  none
attr source  dropPk
attr title  "packets dropped, sum(packetBytes)"
scalar scenarioPRJP1.node[41].app 	outOfOrderPk:count 	18
attr interpolationmode  none
attr source  outOfOrderPk
attr title  "packets received out of order, count"
scalar scenarioPRJP1.node[41].app 	outOfOrderPk:sum(packetBytes) 	9216
attr interpolationmode  none
attr source  outOfOrderPk
attr title  "packets received out of order, sum(packetBytes)"
scalar scenarioPRJP1.node[41].app 	rcvdPk:count 	137
attr interpolationmode  none
attr source  rcvdPk
attr title  "packets received, count"
scalar scenarioPRJP1.node[41].app 	rcvdPk:sum(packetBytes) 	70144
attr interpolationmode  none
attr source  rcvdPk
attr title  "packets received, sum(packetBytes)"
statistic scenarioPRJP1.node[41].app 	endToEndDelay:histogram
field count 137
field mean 0.53799989032579
field stddev 2.2072148841863
field sum 73.705984974633
field sqrsum 702.2182779491
field min 0.000945075091
field max 19.122153796638
attr interpolationmode  none
attr source  messageAge(rcvdPk)
attr title  "delay, histogram"
attr unit  s
bin	-INF	0
bin	-9.5596592856825	0
bin	-8.2849120375794	0
bin	-7.0101647894762	0
bin	-5.7354175413731	0
bin	-4.46067029327	0
bin	-3.1859230451668	0
bin	-1.9111757970637	0
bin	-0.63642854896057	120
bin	0.63831869914257	9
bin	1.9130659472457	2
bin	3.1878131953488	1
bin	4.462560443452	0
bin	5.7373076915551	1
bin	7.0120549396582	1
bin	8.2868021877614	1
bin	9.5615494358645	1
bin	10.836296683968	0
bin	12.111043932071	0
bin	13.385791180174	0
bin	14.660538428277	0
bin	15.93528567638	0
bin	17.210032924483	0
bin	18.484780172586	1
bin	19.75952742069	0
bin	21.034274668793	0
bin	22.309021916896	0
bin	23.583769164999	0
bin	24.858516413102	0
bin	26.133263661205	0
bin	27.408010909308	0
bin	28.682758157411	0
scalar scenarioPRJP1.node[41].app 	sentPk:count 	2613
attr interpolationmode  none
attr source  sentPk
attr title  "packets sent, count"
scalar scenarioPRJP1.node[41].app 	sentPk:sum(packetBytes) 	1337856
attr interpolationmode  none
attr source  sentPk
attr title  "packets sent, sum(packetBytes)"
scalar scenarioPRJP1.node[41].udp 	droppedPkBadChecksum:count 	0
attr interpolationmode  none
attr title  "packets dropped (checksum error), count"
scalar scenarioPRJP1.node[41].udp 	droppedPkWrongPort:count 	0
attr interpolationmode  none
attr title  "packets dropped (wrong port), count"
scalar scenarioPRJP1.node[41].udp 	passedUpPk:count 	196
attr interpolationmode  none
attr title  "packets passed up, count"
scalar scenarioPRJP1.node[41].udp 	rcvdPk:count 	196
attr interpolationmode  none
attr source  rcvdPk
attr title  "packets received, count"
scalar scenarioPRJP1.node[41].udp 	rcvdPk:sum(packetBytes) 	101920
attr interpolationmode  none
attr source  rcvdPk
attr title  "packets received, sum(packetBytes)"
scalar scenarioPRJP1.node[41].udp 	sentPk:count 	2613
attr interpolationmode  none
attr source  sentPk
attr title  "packets sent, count"
scalar scenarioPRJP1.node[41].udp 	sentPk:sum(packetBytes) 	1358760
attr interpolationmode  none
attr source  sentPk
attr title  "packets sent, sum(packetBytes)"
scalar scenarioPRJP1.node[41].networkLayer.arp 	failedARPResolution:count 	7
attr title  "ARP failed resolutions, count"
scalar scenarioPRJP1.node[41].networkLayer.arp 	completedARPResolution:count 	655
attr title  "ARP completed resolutions, count"
scalar scenarioPRJP1.node[41].networkLayer.arp 	initiatedARPResolution:count 	73
attr title  "ARP initiated resolutions, count"
scalar scenarioPRJP1.node[41].networkLayer.arp 	sentReply:count 	64
attr title  "ARP replies sent, count"
scalar scenarioPRJP1.node[41].networkLayer.arp 	sentReq:count 	104
attr title  "ARP request sent, count"
scalar scenarioPRJP1.node[41].mobility 	startTime 	4.9
scalar scenarioPRJP1.node[41].mobility 	totalTime 	945
scalar scenarioPRJP1.node[41].mobility 	stopTime 	950
scalar scenarioPRJP1.node[41].mobility 	minSpeed 	2.4759655406572e-13
scalar scenarioPRJP1.node[41].mobility 	maxSpeed 	16.767591485838
scalar scenarioPRJP1.node[41].mobility 	totalDistance 	9921.9113902219
scalar scenarioPRJP1.node[41].mobility 	totalCO2Emission 	2459.6331809775
scalar scenarioPRJP1.node[41].wlan[0].mgmt 	dataQueueLen:max 	16
attr interpolationmode  sample-hold
attr title  "data queue length, max"
scalar scenarioPRJP1.node[41].wlan[0].mgmt 	dataQueueLen:timeavg 	0
attr interpolationmode  sample-hold
attr title  "data queue length, timeavg"
scalar scenarioPRJP1.node[41].wlan[0].mgmt 	dropPkByQueue:count 	0
attr interpolationmode  none
attr source  dropPkByQueue
attr title  "packets dropped by queue, count"
scalar scenarioPRJP1.node[41].wlan[0].mgmt 	dropPkByQueue:sum(packetBytes) 	0
attr interpolationmode  none
attr source  dropPkByQueue
attr title  "packets dropped by queue, sum(packetBytes)"
scalar scenarioPRJP1.node[41].wlan[0].mac 	"number of received packets" 	2557
scalar scenarioPRJP1.node[41].wlan[0].mac 	"number of collisions" 	22447
scalar scenarioPRJP1.node[41].wlan[0].mac 	"number of internal collisions" 	0
scalar scenarioPRJP1.node[41].wlan[0].mac 	"number of retry for AC 0" 	4176
scalar scenarioPRJP1.node[41].wlan[0].mac 	"number of retry for AC 1" 	0
scalar scenarioPRJP1.node[41].wlan[0].mac 	"number of retry for AC 2" 	0
scalar scenarioPRJP1.node[41].wlan[0].mac 	"number of retry for AC 3" 	0
scalar scenarioPRJP1.node[41].wlan[0].mac 	"sent and received bits" 	14393248
scalar scenarioPRJP1.node[41].wlan[0].mac 	"sent packet within AC 0" 	720
scalar scenarioPRJP1.node[41].wlan[0].mac 	"sent packet within AC 1" 	0
scalar scenarioPRJP1.node[41].wlan[0].mac 	"sent packet within AC 2" 	0
scalar scenarioPRJP1.node[41].wlan[0].mac 	"sent packet within AC 3" 	0
scalar scenarioPRJP1.node[41].wlan[0].mac 	"sent in TXOP " 	0
scalar scenarioPRJP1.node[41].wlan[0].mac 	"sentWithoutRetry AC 0" 	628
scalar scenarioPRJP1.node[41].wlan[0].mac 	"sentWithoutRetry AC 1" 	0
scalar scenarioPRJP1.node[41].wlan[0].mac 	"sentWithoutRetry AC 2" 	0
scalar scenarioPRJP1.node[41].wlan[0].mac 	"sentWithoutRetry AC 3" 	0
scalar scenarioPRJP1.node[41].wlan[0].mac 	"numGivenUp AC 0" 	667
scalar scenarioPRJP1.node[41].wlan[0].mac 	"numGivenUp AC 1" 	0
scalar scenarioPRJP1.node[41].wlan[0].mac 	"numGivenUp AC 2" 	0
scalar scenarioPRJP1.node[41].wlan[0].mac 	"numGivenUp AC 3" 	0
scalar scenarioPRJP1.node[41].wlan[0].mac 	"numDropped AC 0" 	0
scalar scenarioPRJP1.node[41].wlan[0].mac 	"numDropped AC 1" 	0
scalar scenarioPRJP1.node[41].wlan[0].mac 	"numDropped AC 2" 	0
scalar scenarioPRJP1.node[41].wlan[0].mac 	"numDropped AC 3" 	0
scalar scenarioPRJP1.node[41].wlan[0].mac 	rcvdPkFromLL:count 	165622
attr interpolationmode  none
attr source  packetReceivedFromLower
attr title  "packets received from lower layer, count"
scalar scenarioPRJP1.node[41].wlan[0].mac 	rcvdPkFromLL:sum(packetBytes) 	26921972
attr interpolationmode  none
attr source  packetReceivedFromLower
attr title  "packets received from lower layer, sum(packetBytes)"
scalar scenarioPRJP1.node[41].wlan[0].mac 	sentDownPk:count 	25154
attr interpolationmode  none
attr source  packetSentToLower
attr title  "packets sent to lower layer, count"
scalar scenarioPRJP1.node[41].wlan[0].mac 	sentDownPk:sum(packetBytes) 	3870486
attr interpolationmode  none
attr source  packetSentToLower
attr title  "packets sent to lower layer, sum(packetBytes)"
scalar scenarioPRJP1.node[41].wlan[0].mac 	rcvdPkFromHL:count 	18421
attr interpolationmode  none
attr source  packetReceivedFromUpper
attr title  "packets received from higher layer, count"
scalar scenarioPRJP1.node[41].wlan[0].mac 	rcvdPkFromHL:sum(packetBytes) 	2078248
attr interpolationmode  none
attr source  packetReceivedFromUpper
attr title  "packets received from higher layer, sum(packetBytes)"
scalar scenarioPRJP1.node[41].wlan[0].mac 	passedUpPk:count 	91553
attr interpolationmode  none
attr source  packetSentToUpper
attr title  "packets passed to higher layer, count"
scalar scenarioPRJP1.node[41].wlan[0].mac 	passedUpPk:sum(packetBytes) 	8419564
attr interpolationmode  none
attr source  packetSentToUpper
attr title  "packets passed to higher layer, sum(packetBytes)"
statistic scenarioPRJP1.node[41].wlan[0].radio 	radioChannel:histogram
field count 1
field mean 3
field stddev -nan
field sum 3
field sqrsum 9
field min 3
field max 3
attr interpolationmode  sample-hold
attr source  radioChannelChanged
attr title  "Radio channel, histogram"
bin	-INF	0
bin	2	0
bin	3	1
bin	4	0
scalar scenarioPRJP1.node[41].wlan[0].radio 	transmissionState:count 	100614
attr interpolationmode  sample-hold
attr source  transmissionStateChanged
attr title  "Radio transmission state, count"
scalar scenarioPRJP1.node[41].wlan[0].radio 	receptionState:count 	385224
attr interpolationmode  sample-hold
attr source  receptionStateChanged
attr title  "Radio reception state, count"
scalar scenarioPRJP1.node[41].wlan[0].radio 	radioMode:count 	50309
attr interpolationmode  sample-hold
attr source  radioModeChanged
attr title  "Radio mode, count"
statistic scenarioPRJP1.node[41].wlan[0].radio 	symbolErrorRate:histogram
field count 0
field mean -nan
field stddev -nan
field sum 0
field sqrsum 0
field min -nan
field max -nan
attr source  symbolErrorRate
attr title  "Symbol error rate, histogram"
bin	-INF	0
bin	-0.5	0
bin	-0.46666666666667	0
bin	-0.43333333333333	0
bin	-0.4	0
bin	-0.36666666666667	0
bin	-0.33333333333333	0
bin	-0.3	0
bin	-0.26666666666667	0
bin	-0.23333333333333	0
bin	-0.2	0
bin	-0.16666666666667	0
bin	-0.13333333333333	0
bin	-0.1	0
bin	-0.066666666666667	0
bin	-0.033333333333333	0
bin	0	0
bin	0.033333333333333	0
bin	0.066666666666667	0
bin	0.1	0
bin	0.13333333333333	0
bin	0.16666666666667	0
bin	0.2	0
bin	0.23333333333333	0
bin	0.26666666666667	0
bin	0.3	0
bin	0.33333333333333	0
bin	0.36666666666667	0
bin	0.4	0
bin	0.43333333333333	0
bin	0.46666666666667	0
bin	0.5	0
statistic scenarioPRJP1.node[41].wlan[0].radio 	bitErrorRate:histogram
field count 0
field mean -nan
field stddev -nan
field sum 0
field sqrsum 0
field min -nan
field max -nan
attr source  bitErrorRate
attr title  "Bit error rate, histogram"
bin	-INF	0
bin	-0.5	0
bin	-0.46666666666667	0
bin	-0.43333333333333	0
bin	-0.4	0
bin	-0.36666666666667	0
bin	-0.33333333333333	0
bin	-0.3	0
bin	-0.26666666666667	0
bin	-0.23333333333333	0
bin	-0.2	0
bin	-0.16666666666667	0
bin	-0.13333333333333	0
bin	-0.1	0
bin	-0.066666666666667	0
bin	-0.033333333333333	0
bin	0	0
bin	0.033333333333333	0
bin	0.066666666666667	0
bin	0.1	0
bin	0.13333333333333	0
bin	0.16666666666667	0
bin	0.2	0
bin	0.23333333333333	0
bin	0.26666666666667	0
bin	0.3	0
bin	0.33333333333333	0
bin	0.36666666666667	0
bin	0.4	0
bin	0.43333333333333	0
bin	0.46666666666667	0
bin	0.5	0
statistic scenarioPRJP1.node[41].wlan[0].radio 	packetErrorRate:histogram
field count 165622
field mean 0.11277616485508
field stddev 0.30742626208832
field sum 18678.213975628
field sqrsum 17759.448204089
field min 0
field max 1
attr source  packetErrorRate
attr title  "Packet error rate, histogram"
bin	-INF	0
bin	-0.00017088411291838	0
bin	-0.00014809956452926	0
bin	-0.00012531501614014	0
bin	-0.00010253046775103	0
bin	-7.974591936191e-05	0
bin	-5.6961370972793e-05	0
bin	-3.4176822583676e-05	0
bin	-1.1392274194559e-05	131962
bin	1.1392274194559e-05	1403
bin	3.4176822583676e-05	693
bin	5.6961370972793e-05	444
bin	7.974591936191e-05	329
bin	0.00010253046775103	259
bin	0.00012531501614014	204
bin	0.00014809956452926	227
bin	0.00017088411291838	159
bin	0.0001936686613075	142
bin	0.00021645320969661	122
bin	0.00023923775808573	120
bin	0.00026202230647485	114
bin	0.00028480685486397	105
bin	0.00030759140325308	108
bin	0.0003303759516422	99
bin	0.00035316050003132	94
bin	0.00037594504842043	94
bin	0.00039872959680955	78
bin	0.00042151414519867	65
bin	0.00044429869358779	70
bin	0.0004670832419769	56
bin	0.00048986779036602	73
bin	0.00051265233875514	28602
statistic scenarioPRJP1.node[41].wlan[0].radio 	minSNIR:histogram
field count 165622
field mean 3653.137959091
field stddev 34243.761356611
field sum 605040015.06058
field sqrsum 1.9642330775493e+14
field min 0.00070017087346161
field max 753239.71923443
attr source  minSNIR
attr title  "Min SNIR, histogram"
bin	-INF	0
bin	-1822.9674666634	0
bin	-1579.508666331	0
bin	-1336.0498659986	0
bin	-1092.5910656661	0
bin	-849.13226533373	0
bin	-605.67346500132	0
bin	-362.21466466891	0
bin	-118.75586433649	108714
bin	124.70293599592	20840
bin	368.16173632833	7358
bin	611.62053666074	3615
bin	855.07933699316	2283
bin	1098.5381373256	1821
bin	1341.996937658	1496
bin	1585.4557379904	1301
bin	1828.9145383228	1043
bin	2072.3733386552	993
bin	2315.8321389876	744
bin	2559.29093932	695
bin	2802.7497396525	566
bin	3046.2085399849	534
bin	3289.6673403173	514
bin	3533.1261406497	446
bin	3776.5849409821	426
bin	4020.0437413145	454
bin	4263.5025416469	310
bin	4506.9613419793	347
bin	4750.4201423118	261
bin	4993.8789426442	238
bin	5237.3377429766	289
bin	5480.796543309	10334
scalar scenarioPRJP1.node[41].lo0.lo 	droppedPkBitError:count 	0
attr interpolationmode  none
attr source  dropPkBitError
attr title  "packets dropped/bit error, count"
scalar scenarioPRJP1.node[41].lo0.lo 	droppedPkBitError:sum(packetBytes) 	0
attr interpolationmode  none
attr source  dropPkBitError
attr title  "packets dropped/bit error, sum(packetBytes)"
scalar scenarioPRJP1.node[41].lo0.lo 	rcvdPkFromHL:count 	0
attr interpolationmode  none
attr source  packetReceivedFromUpper
attr title  "packets received from higher layer, count"
scalar scenarioPRJP1.node[41].lo0.lo 	rcvdPkFromHL:sum(packetBytes) 	0
attr interpolationmode  none
attr source  packetReceivedFromUpper
attr title  "packets received from higher layer, sum(packetBytes)"
scalar scenarioPRJP1.node[41].lo0.lo 	passedUpPk:count 	0
attr interpolationmode  none
attr source  packetSentToUpper
attr title  "packets passed to higher layer, count"
scalar scenarioPRJP1.node[41].lo0.lo 	passedUpPk:sum(packetBytes) 	0
attr interpolationmode  none
attr source  packetSentToUpper
attr title  "packets passed to higher layer, sum(packetBytes)"
scalar scenarioPRJP1.node[61].app 	"Total sent" 	2628
scalar scenarioPRJP1.node[61].app 	"Total received" 	158
scalar scenarioPRJP1.node[61].app 	"Total deleted" 	127
scalar scenarioPRJP1.node[61].app 	dropPk:count 	127
attr interpolationmode  none
attr source  dropPk
attr title  "packets dropped, count"
scalar scenarioPRJP1.node[61].app 	dropPk:sum(packetBytes) 	65024
attr interpolationmode  none
attr source  dropPk
attr title  "packets dropped, sum(packetBytes)"
scalar scenarioPRJP1.node[61].app 	outOfOrderPk:count 	14
attr interpolationmode  none
attr source  outOfOrderPk
attr title  "packets received out of order, count"
scalar scenarioPRJP1.node[61].app 	outOfOrderPk:sum(packetBytes) 	7168
attr interpolationmode  none
attr source  outOfOrderPk
attr title  "packets received out of order, sum(packetBytes)"
scalar scenarioPRJP1.node[61].app 	rcvdPk:count 	158
attr interpolationmode  none
attr source  rcvdPk
attr title  "packets received, count"
scalar scenarioPRJP1.node[61].app 	rcvdPk:sum(packetBytes) 	80896
attr interpolationmode  none
attr source  rcvdPk
attr title  "packets received, sum(packetBytes)"
statistic scenarioPRJP1.node[61].app 	endToEndDelay:histogram
field count 158
field mean 1.7093378258188
field stddev 4.2591328340684
field sum 270.07537647937
field sqrsum 3309.6634190621
field min 0.000945011007
field max 19.173191369577
attr interpolationmode  none
attr source  messageAge(rcvdPk)
attr title  "delay, histogram"
attr unit  s
bin	-INF	0
bin	-9.5851778897325	0
bin	-8.3070281448743	0
bin	-7.0288784000161	0
bin	-5.7507286551579	0
bin	-4.4725789102997	0
bin	-3.1944291654415	0
bin	-1.9162794205833	0
bin	-0.6381296757251	127
bin	0.6400200691331	3
bin	1.9181698139913	2
bin	3.1963195588495	7
bin	4.4744693037077	3
bin	5.7526190485659	1
bin	7.0307687934241	1
bin	8.3089185382823	1
bin	9.5870682831405	1
bin	10.865218027999	1
bin	12.143367772857	1
bin	13.421517517715	5
bin	14.699667262573	0
bin	15.977817007432	3
bin	17.25596675229	1
bin	18.534116497148	1
bin	19.812266242006	0
bin	21.090415986864	0
bin	22.368565731723	0
bin	23.646715476581	0
bin	24.924865221439	0
bin	26.203014966297	0
bin	27.481164711155	0
bin	28.759314456014	0
scalar scenarioPRJP1.node[61].app 	sentPk:count 	2628
attr interpolationmode  none
attr source  sentPk
attr title  "packets sent, count"
scalar scenarioPRJP1.node[61].app 	sentPk:sum(packetBytes) 	1345536
attr interpolationmode  none
attr source  sentPk
attr title  "packets sent, sum(packetBytes)"
scalar scenarioPRJP1.node[61].udp 	droppedPkBadChecksum:count 	0
attr interpolationmode  none
attr title  "packets dropped (checksum error), count"
scalar scenarioPRJP1.node[61].udp 	droppedPkWrongPort:count 	0
attr interpolationmode  none
attr title  "packets dropped (wrong port), count"
scalar scenarioPRJP1.node[61].udp 	passedUpPk:count 	299
attr interpolationmode  none
attr title  "packets passed up, count"
scalar scenarioPRJP1.node[61].udp 	rcvdPk:count 	299
attr interpolationmode  none
attr source  rcvdPk
attr title  "packets received, count"
scalar scenarioPRJP1.node[61].udp 	rcvdPk:sum(packetBytes) 	155480
attr interpolationmode  none
attr source  rcvdPk
attr title  "packets received, sum(packetBytes)"
scalar scenarioPRJP1.node[61].udp 	sentPk:count 	2628
attr interpolationmode  none
attr source  sentPk
attr title  "packets sent, count"
scalar scenarioPRJP1.node[61].udp 	sentPk:sum(packetBytes) 	1366560
attr interpolationmode  none
attr source  sentPk
attr title  "packets sent, sum(packetBytes)"
scalar scenarioPRJP1.node[61].networkLayer.arp 	failedARPResolution:count 	10
attr title  "ARP failed resolutions, count"
scalar scenarioPRJP1.node[61].networkLayer.arp 	completedARPResolution:count 	701
attr title  "ARP completed resolutions, count"
scalar scenarioPRJP1.node[61].networkLayer.arp 	initiatedARPResolution:count 	85
attr title  "ARP initiated resolutions, count"
scalar scenarioPRJP1.node[61].networkLayer.arp 	sentReply:count 	53
attr title  "ARP replies sent, count"
scalar scenarioPRJP1.node[61].networkLayer.arp 	sentReq:count 	125
attr title  "ARP request sent, count"
scalar scenarioPRJP1.node[61].mobility 	startTime 	7.3
scalar scenarioPRJP1.node[61].mobility 	totalTime 	942.6
scalar scenarioPRJP1.node[61].mobility 	stopTime 	950
scalar scenarioPRJP1.node[61].mobility 	minSpeed 	2.4754960176508e-13
scalar scenarioPRJP1.node[61].mobility 	maxSpeed 	17.501803780287
scalar scenarioPRJP1.node[61].mobility 	totalDistance 	10666.956602458
scalar scenarioPRJP1.node[61].mobility 	totalCO2Emission 	2653.1724227524
scalar scenarioPRJP1.node[61].wlan[0].mgmt 	dataQueueLen:max 	20
attr interpolationmode  sample-hold
attr title  "data queue length, max"
scalar scenarioPRJP1.node[61].wlan[0].mgmt 	dataQueueLen:timeavg 	0
attr interpolationmode  sample-hold
attr title  "data queue length, timeavg"
scalar scenarioPRJP1.node[61].wlan[0].mgmt 	dropPkByQueue:count 	0
attr interpolationmode  none
attr source  dropPkByQueue
attr title  "packets dropped by queue, count"
scalar scenarioPRJP1.node[61].wlan[0].mgmt 	dropPkByQueue:sum(packetBytes) 	0
attr interpolationmode  none
attr source  dropPkByQueue
attr title  "packets dropped by queue, sum(packetBytes)"
scalar scenarioPRJP1.node[61].wlan[0].mac 	"number of received packets" 	3500
scalar scenarioPRJP1.node[61].wlan[0].mac 	"number of collisions" 	28476
scalar scenarioPRJP1.node[61].wlan[0].mac 	"number of internal collisions" 	0
scalar scenarioPRJP1.node[61].wlan[0].mac 	"number of retry for AC 0" 	5947
scalar scenarioPRJP1.node[61].wlan[0].mac 	"number of retry for AC 1" 	0
scalar scenarioPRJP1.node[61].wlan[0].mac 	"number of retry for AC 2" 	0
scalar scenarioPRJP1.node[61].wlan[0].mac 	"number of retry for AC 3" 	0
scalar scenarioPRJP1.node[61].wlan[0].mac 	"sent and received bits" 	15612064
scalar scenarioPRJP1.node[61].wlan[0].mac 	"sent packet within AC 0" 	743
scalar scenarioPRJP1.node[61].wlan[0].mac 	"sent packet within AC 1" 	0
scalar scenarioPRJP1.node[61].wlan[0].mac 	"sent packet within AC 2" 	0
scalar scenarioPRJP1.node[61].wlan[0].mac 	"sent packet within AC 3" 	0
scalar scenarioPRJP1.node[61].wlan[0].mac 	"sent in TXOP " 	0
scalar scenarioPRJP1.node[61].wlan[0].mac 	"sentWithoutRetry AC 0" 	635
scalar scenarioPRJP1.node[61].wlan[0].mac 	"sentWithoutRetry AC 1" 	0
scalar scenarioPRJP1.node[61].wlan[0].mac 	"sentWithoutRetry AC 2" 	0
scalar scenarioPRJP1.node[61].wlan[0].mac 	"sentWithoutRetry AC 3" 	0
scalar scenarioPRJP1.node[61].wlan[0].mac 	"numGivenUp AC 0" 	960
scalar scenarioPRJP1.node[61].wlan[0].mac 	"numGivenUp AC 1" 	0
scalar scenarioPRJP1.node[61].wlan[0].mac 	"numGivenUp AC 2" 	0
scalar scenarioPRJP1.node[61].wlan[0].mac 	"numGivenUp AC 3" 	0
scalar scenarioPRJP1.node[61].wlan[0].mac 	"numDropped AC 0" 	0
scalar scenarioPRJP1.node[61].wlan[0].mac 	"numDropped AC 1" 	0
scalar scenarioPRJP1.node[61].wlan[0].mac 	"numDropped AC 2" 	0
scalar scenarioPRJP1.node[61].wlan[0].mac 	"numDropped AC 3" 	0
scalar scenarioPRJP1.node[61].wlan[0].mac 	rcvdPkFromLL:count 	190321
attr interpolationmode  none
attr source  packetReceivedFromLower
attr title  "packets received from lower layer, count"
scalar scenarioPRJP1.node[61].wlan[0].mac 	rcvdPkFromLL:sum(packetBytes) 	31850504
attr interpolationmode  none
attr source  packetReceivedFromLower
attr title  "packets received from lower layer, sum(packetBytes)"
scalar scenarioPRJP1.node[61].wlan[0].mac 	sentDownPk:count 	29567
attr interpolationmode  none
attr source  packetSentToLower
attr title  "packets sent to lower layer, count"
scalar scenarioPRJP1.node[61].wlan[0].mac 	sentDownPk:sum(packetBytes) 	4965684
attr interpolationmode  none
attr source  packetSentToLower
attr title  "packets sent to lower layer, sum(packetBytes)"
scalar scenarioPRJP1.node[61].wlan[0].mac 	rcvdPkFromHL:count 	20120
attr interpolationmode  none
attr source  packetReceivedFromUpper
attr title  "packets received from higher layer, count"
scalar scenarioPRJP1.node[61].wlan[0].mac 	rcvdPkFromHL:sum(packetBytes) 	2362956
attr interpolationmode  none
attr source  packetReceivedFromUpper
attr title  "packets received from higher layer, sum(packetBytes)"
scalar scenarioPRJP1.node[61].wlan[0].mac 	passedUpPk:count 	96815
attr interpolationmode  none
attr source  packetSentToUpper
attr title  "packets passed to higher layer, count"
scalar scenarioPRJP1.node[61].wlan[0].mac 	passedUpPk:sum(packetBytes) 	9030200
attr interpolationmode  none
attr source  packetSentToUpper
attr title  "packets passed to higher layer, sum(packetBytes)"
statistic scenarioPRJP1.node[61].wlan[0].radio 	radioChannel:histogram
field count 1
field mean 3
field stddev -nan
field sum 3
field sqrsum 9
field min 3
field max 3
attr interpolationmode  sample-hold
attr source  radioChannelChanged
attr title  "Radio channel, histogram"
bin	-INF	0
bin	2	0
bin	3	1
bin	4	0
scalar scenarioPRJP1.node[61].wlan[0].radio 	transmissionState:count 	118268
attr interpolationmode  sample-hold
attr source  transmissionStateChanged
attr title  "Radio transmission state, count"
scalar scenarioPRJP1.node[61].wlan[0].radio 	receptionState:count 	443620
attr interpolationmode  sample-hold
attr source  receptionStateChanged
attr title  "Radio reception state, count"
scalar scenarioPRJP1.node[61].wlan[0].radio 	radioMode:count 	59136
attr interpolationmode  sample-hold
attr source  radioModeChanged
attr title  "Radio mode, count"
statistic scenarioPRJP1.node[61].wlan[0].radio 	symbolErrorRate:histogram
field count 0
field mean -nan
field stddev -nan
field sum 0
field sqrsum 0
field min -nan
field max -nan
attr source  symbolErrorRate
attr title  "Symbol error rate, histogram"
bin	-INF	0
bin	-0.5	0
bin	-0.46666666666667	0
bin	-0.43333333333333	0
bin	-0.4	0
bin	-0.36666666666667	0
bin	-0.33333333333333	0
bin	-0.3	0
bin	-0.26666666666667	0
bin	-0.23333333333333	0
bin	-0.2	0
bin	-0.16666666666667	0
bin	-0.13333333333333	0
bin	-0.1	0
bin	-0.066666666666667	0
bin	-0.033333333333333	0
bin	0	0
bin	0.033333333333333	0
bin	0.066666666666667	0
bin	0.1	0
bin	0.13333333333333	0
bin	0.16666666666667	0
bin	0.2	0
bin	0.23333333333333	0
bin	0.26666666666667	0
bin	0.3	0
bin	0.33333333333333	0
bin	0.36666666666667	0
bin	0.4	0
bin	0.43333333333333	0
bin	0.46666666666667	0
bin	0.5	0
statistic scenarioPRJP1.node[61].wlan[0].radio 	bitErrorRate:histogram
field count 0
field mean -nan
field stddev -nan
field sum 0
field sqrsum 0
field min -nan
field max -nan
attr source  bitErrorRate
attr title  "Bit error rate, histogram"
bin	-INF	0
bin	-0.5	0
bin	-0.46666666666667	0
bin	-0.43333333333333	0
bin	-0.4	0
bin	-0.36666666666667	0
bin	-0.33333333333333	0
bin	-0.3	0
bin	-0.26666666666667	0
bin	-0.23333333333333	0
bin	-0.2	0
bin	-0.16666666666667	0
bin	-0.13333333333333	0
bin	-0.1	0
bin	-0.066666666666667	0
bin	-0.033333333333333	0
bin	0	0
bin	0.033333333333333	0
bin	0.066666666666667	0
bin	0.1	0
bin	0.13333333333333	0
bin	0.16666666666667	0
bin	0.2	0
bin	0.23333333333333	0
bin	0.26666666666667	0
bin	0.3	0
bin	0.33333333333333	0
bin	0.36666666666667	0
bin	0.4	0
bin	0.43333333333333	0
bin	0.46666666666667	0
bin	0.5	0
statistic scenarioPRJP1.node[61].wlan[0].radio 	packetErrorRate:histogram
field count 190321
field mean 0.12532433653694
field stddev 0.32153913030011
field sum 23851.853054046
field sqrsum 22665.909970804
field min 0
field max 1
attr source  packetErrorRate
attr title  "Packet error rate, histogram"
bin	-INF	22215
bin	-2.6552782195211e-09	0
bin	-2.3012411235849e-09	0
bin	-1.9472040276488e-09	0
bin	-1.5931669317126e-09	0
bin	-1.2391298357765e-09	0
bin	-8.8509273984035e-10	0
bin	-5.3105564390421e-10	0
bin	-1.7701854796807e-10	132055
bin	1.7701854796807e-10	1254
bin	5.3105564390421e-10	620
bin	8.8509273984035e-10	401
bin	1.2391298357765e-09	290
bin	1.5931669317126e-09	267
bin	1.9472040276488e-09	219
bin	2.3012411235849e-09	182
bin	2.6552782195211e-09	170
bin	3.0093153154572e-09	142
bin	3.3633524113933e-09	116
bin	3.7173895073295e-09	106
bin	4.0714266032656e-09	110
bin	4.4254636992018e-09	97
bin	4.7795007951379e-09	85
bin	5.133537891074e-09	75
bin	5.4875749870102e-09	72
bin	5.8416120829463e-09	76
bin	6.1956491788825e-09	80
bin	6.5496862748186e-09	70
bin	6.9037233707547e-09	62
bin	7.2577604666909e-09	51
bin	7.611797562627e-09	57
bin	7.9658346585632e-09	31449
statistic scenarioPRJP1.node[61].wlan[0].radio 	minSNIR:histogram
field count 190321
field mean 4014.8784334758
field stddev 38398.660580036
field sum 764115678.33755
field sqrsum 2.8368651336539e+14
field min 0.0002541377677266
field max 1437564.6035717
attr source  minSNIR
attr title  "Min SNIR, histogram"
bin	-INF	0
bin	-885.3819591373	0
bin	-766.671300715	0
bin	-647.96064229271	0
bin	-529.24998387041	0
bin	-410.53932544811	0
bin	-291.82866702582	0
bin	-173.11800860352	0
bin	-54.407350181224	119426
bin	64.303308241073	17662
bin	183.01396666337	10443
bin	301.72462508567	6238
bin	420.43528350796	3843
bin	539.14594193026	2700
bin	657.85660035256	2192
bin	776.56725877485	1738
bin	895.27791719715	1412
bin	1013.9885756194	1185
bin	1132.6992340417	1049
bin	1251.409892464	887
bin	1370.1205508863	845
bin	1488.8312093086	766
bin	1607.5418677309	670
bin	1726.2525261532	591
bin	1844.9631845755	471
bin	1963.6738429978	530
bin	2082.3845014201	448
bin	2201.0951598424	432
bin	2319.8058182647	414
bin	2438.516476687	379
bin	2557.2271351093	357
bin	2675.9377935316	15643
scalar scenarioPRJP1.node[61].lo0.lo 	droppedPkBitError:count 	0
attr interpolationmode  none
attr source  dropPkBitError
attr title  "packets dropped/bit error, count"
scalar scenarioPRJP1.node[61].lo0.lo 	droppedPkBitError:sum(packetBytes) 	0
attr interpolationmode  none
attr source  dropPkBitError
attr title  "packets dropped/bit error, sum(packetBytes)"
scalar scenarioPRJP1.node[61].lo0.lo 	rcvdPkFromHL:count 	0
attr interpolationmode  none
attr source  packetReceivedFromUpper
attr title  "packets received from higher layer, count"
scalar scenarioPRJP1.node[61].lo0.lo 	rcvdPkFromHL:sum(packetBytes) 	0
attr interpolationmode  none
attr source  packetReceivedFromUpper
attr title  "packets received from higher layer, sum(packetBytes)"
scalar scenarioPRJP1.node[61].lo0.lo 	passedUpPk:count 	0
attr interpolationmode  none
attr source  packetSentToUpper
attr title  "packets passed to higher layer, count"
scalar scenarioPRJP1.node[61].lo0.lo 	passedUpPk:sum(packetBytes) 	0
attr interpolationmode  none
attr source  packetSentToUpper
attr title  "packets passed to higher layer, sum(packetBytes)"
scalar scenarioPRJP1.node[81].app 	"Total sent" 	2613
scalar scenarioPRJP1.node[81].app 	"Total received" 	170
scalar scenarioPRJP1.node[81].app 	"Total deleted" 	98
scalar scenarioPRJP1.node[81].app 	dropPk:count 	98
attr interpolationmode  none
attr source  dropPk
attr title  "packets dropped, count"
scalar scenarioPRJP1.node[81].app 	dropPk:sum(packetBytes) 	50176
attr interpolationmode  none
attr source  dropPk
attr title  "packets dropped, sum(packetBytes)"
scalar scenarioPRJP1.node[81].app 	outOfOrderPk:count 	14
attr interpolationmode  none
attr source  outOfOrderPk
attr title  "packets received out of order, count"
scalar scenarioPRJP1.node[81].app 	outOfOrderPk:sum(packetBytes) 	7168
attr interpolationmode  none
attr source  outOfOrderPk
attr title  "packets received out of order, sum(packetBytes)"
scalar scenarioPRJP1.node[81].app 	rcvdPk:count 	170
attr interpolationmode  none
attr source  rcvdPk
attr title  "packets received, count"
scalar scenarioPRJP1.node[81].app 	rcvdPk:sum(packetBytes) 	87040
attr interpolationmode  none
attr source  rcvdPk
attr title  "packets received, sum(packetBytes)"
statistic scenarioPRJP1.node[81].app 	endToEndDelay:histogram
field count 170
field mean 1.1748267171057
field stddev 3.7333997876025
field sum 199.72054190796
field sqrsum 2590.2053302062
field min 0.000945061376
field max 19.048465336635
attr interpolationmode  none
attr source  messageAge(rcvdPk)
attr title  "delay, histogram"
attr unit  s
bin	-INF	0
bin	-9.5228150762535	0
bin	-8.2529803912362	0
bin	-6.983145706219	0
bin	-5.7133110212017	0
bin	-4.4434763361844	0
bin	-3.1736416511672	0
bin	-1.9038069661499	0
bin	-0.63397228113263	147
bin	0.63586240388463	6
bin	1.9056970889019	2
bin	3.1755317739192	1
bin	4.4453664589364	0
bin	5.7152011439537	0
bin	6.985035828971	2
bin	8.2548705139882	1
bin	9.5247051990055	1
bin	10.794539884023	1
bin	12.06437456904	1
bin	13.334209254057	3
bin	14.604043939075	1
bin	15.873878624092	3
bin	17.143713309109	0
bin	18.413547994126	1
bin	19.683382679144	0
bin	20.953217364161	0
bin	22.223052049178	0
bin	23.492886734195	0
bin	24.762721419213	0
bin	26.03255610423	0
bin	27.302390789247	0
bin	28.572225474264	0
scalar scenarioPRJP1.node[81].app 	sentPk:count 	2613
attr interpolationmode  none
attr source  sentPk
attr title  "packets sent, count"
scalar scenarioPRJP1.node[81].app 	sentPk:sum(packetBytes) 	1337856
attr interpolationmode  none
attr source  sentPk
attr title  "packets sent, sum(packetBytes)"
scalar scenarioPRJP1.node[81].udp 	droppedPkBadChecksum:count 	0
attr interpolationmode  none
attr title  "packets dropped (checksum error), count"
scalar scenarioPRJP1.node[81].udp 	droppedPkWrongPort:count 	0
attr interpolationmode  none
attr title  "packets dropped (wrong port), count"
scalar scenarioPRJP1.node[81].udp 	passedUpPk:count 	282
attr interpolationmode  none
attr title  "packets passed up, count"
scalar scenarioPRJP1.node[81].udp 	rcvdPk:count 	282
attr interpolationmode  none
attr source  rcvdPk
attr title  "packets received, count"
scalar scenarioPRJP1.node[81].udp 	rcvdPk:sum(packetBytes) 	146640
attr interpolationmode  none
attr source  rcvdPk
attr title  "packets received, sum(packetBytes)"
scalar scenarioPRJP1.node[81].udp 	sentPk:count 	2613
attr interpolationmode  none
attr source  sentPk
attr title  "packets sent, count"
scalar scenarioPRJP1.node[81].udp 	sentPk:sum(packetBytes) 	1358760
attr interpolationmode  none
attr source  sentPk
attr title  "packets sent, sum(packetBytes)"
scalar scenarioPRJP1.node[81].networkLayer.arp 	failedARPResolution:count 	17
attr title  "ARP failed resolutions, count"
scalar scenarioPRJP1.node[81].networkLayer.arp 	completedARPResolution:count 	959
attr title  "ARP completed resolutions, count"
scalar scenarioPRJP1.node[81].networkLayer.arp 	initiatedARPResolution:count 	98
attr title  "ARP initiated resolutions, count"
scalar scenarioPRJP1.node[81].networkLayer.arp 	sentReply:count 	69
attr title  "ARP replies sent, count"
scalar scenarioPRJP1.node[81].networkLayer.arp 	sentReq:count 	155
attr title  "ARP request sent, count"
scalar scenarioPRJP1.node[81].mobility 	startTime 	9.7
scalar scenarioPRJP1.node[81].mobility 	totalTime 	940.2
scalar scenarioPRJP1.node[81].mobility 	stopTime 	950
scalar scenarioPRJP1.node[81].mobility 	minSpeed 	2.4754886775535e-13
scalar scenarioPRJP1.node[81].mobility 	maxSpeed 	19.215013781751
scalar scenarioPRJP1.node[81].mobility 	totalDistance 	8524.5680303643
scalar scenarioPRJP1.node[81].mobility 	totalCO2Emission 	2505.9840307369
scalar scenarioPRJP1.node[81].wlan[0].mgmt 	dataQueueLen:max 	16
attr interpolationmode  sample-hold
attr title  "data queue length, max"
scalar scenarioPRJP1.node[81].wlan[0].mgmt 	dataQueueLen:timeavg 	0
attr interpolationmode  sample-hold
attr title  "data queue length, timeavg"
scalar scenarioPRJP1.node[81].wlan[0].mgmt 	dropPkByQueue:count 	0
attr interpolationmode  none
attr source  dropPkByQueue
attr title  "packets dropped by queue, count"
scalar scenarioPRJP1.node[81].wlan[0].mgmt 	dropPkByQueue:sum(packetBytes) 	0
attr interpolationmode  none
attr source  dropPkByQueue
attr title  "packets dropped by queue, sum(packetBytes)"
scalar scenarioPRJP1.node[81].wlan[0].mac 	"number of received packets" 	4260
scalar scenarioPRJP1.node[81].wlan[0].mac 	"number of collisions" 	37775
scalar scenarioPRJP1.node[81].wlan[0].mac 	"number of internal collisions" 	0
scalar scenarioPRJP1.node[81].wlan[0].mac 	"number of retry for AC 0" 	6483
scalar scenarioPRJP1.node[81].wlan[0].mac 	"number of retry for AC 1" 	1
scalar scenarioPRJP1.node[81].wlan[0].mac 	"number of retry for AC 2" 	0
scalar scenarioPRJP1.node[81].wlan[0].mac 	"number of retry for AC 3" 	0
scalar scenarioPRJP1.node[81].wlan[0].mac 	"sent and received bits" 	17820928
scalar scenarioPRJP1.node[81].wlan[0].mac 	"sent packet within AC 0" 	1428
scalar scenarioPRJP1.node[81].wlan[0].mac 	"sent packet within AC 1" 	11
scalar scenarioPRJP1.node[81].wlan[0].mac 	"sent packet within AC 2" 	0
scalar scenarioPRJP1.node[81].wlan[0].mac 	"sent packet within AC 3" 	0
scalar scenarioPRJP1.node[81].wlan[0].mac 	"sent in TXOP " 	0
scalar scenarioPRJP1.node[81].wlan[0].mac 	"sentWithoutRetry AC 0" 	1281
scalar scenarioPRJP1.node[81].wlan[0].mac 	"sentWithoutRetry AC 1" 	10
scalar scenarioPRJP1.node[81].wlan[0].mac 	"sentWithoutRetry AC 2" 	0
scalar scenarioPRJP1.node[81].wlan[0].mac 	"sentWithoutRetry AC 3" 	0
scalar scenarioPRJP1.node[81].wlan[0].mac 	"numGivenUp AC 0" 	1039
scalar scenarioPRJP1.node[81].wlan[0].mac 	"numGivenUp AC 1" 	0
scalar scenarioPRJP1.node[81].wlan[0].mac 	"numGivenUp AC 2" 	0
scalar scenarioPRJP1.node[81].wlan[0].mac 	"numGivenUp AC 3" 	0
scalar scenarioPRJP1.node[81].wlan[0].mac 	"numDropped AC 0" 	0
scalar scenarioPRJP1.node[81].wlan[0].mac 	"numDropped AC 1" 	0
scalar scenarioPRJP1.node[81].wlan[0].mac 	"numDropped AC 2" 	0
scalar scenarioPRJP1.node[81].wlan[0].mac 	"numDropped AC 3" 	0
scalar scenarioPRJP1.node[81].wlan[0].mac 	rcvdPkFromLL:count 	243949
attr interpolationmode  none
attr source  packetReceivedFromLower
attr title  "packets received from lower layer, count"
scalar scenarioPRJP1.node[81].wlan[0].mac 	rcvdPkFromLL:sum(packetBytes) 	42112682
attr interpolationmode  none
attr source  packetReceivedFromLower
attr title  "packets received from lower layer, sum(packetBytes)"
scalar scenarioPRJP1.node[81].wlan[0].mac 	sentDownPk:count 	32916
attr interpolationmode  none
attr source  packetSentToLower
attr title  "packets sent to lower layer, count"
scalar scenarioPRJP1.node[81].wlan[0].mac 	sentDownPk:sum(packetBytes) 	5314040
attr interpolationmode  none
attr source  packetSentToLower
attr title  "packets sent to lower layer, sum(packetBytes)"
scalar scenarioPRJP1.node[81].wlan[0].mac 	rcvdPkFromHL:count 	22172
attr interpolationmode  none
attr source  packetReceivedFromUpper
attr title  "packets received from higher layer, count"
scalar scenarioPRJP1.node[81].wlan[0].mac 	rcvdPkFromHL:sum(packetBytes) 	2645500
attr interpolationmode  none
attr source  packetReceivedFromUpper
attr title  "packets received from higher layer, sum(packetBytes)"
scalar scenarioPRJP1.node[81].wlan[0].mac 	passedUpPk:count 	119403
attr interpolationmode  none
attr source  packetSentToUpper
attr title  "packets passed to higher layer, count"
scalar scenarioPRJP1.node[81].wlan[0].mac 	passedUpPk:sum(packetBytes) 	11110060
attr interpolationmode  none
attr source  packetSentToUpper
attr title  "packets passed to higher layer, sum(packetBytes)"
statistic scenarioPRJP1.node[81].wlan[0].radio 	radioChannel:histogram
field count 1
field mean 3
field stddev -nan
field sum 3
field sqrsum 9
field min 3
field max 3
attr interpolationmode  sample-hold
attr source  radioChannelChanged
attr title  "Radio channel, histogram"
bin	-INF	0
bin	2	0
bin	3	1
bin	4	0
scalar scenarioPRJP1.node[81].wlan[0].radio 	transmissionState:count 	131664
attr interpolationmode  sample-hold
attr source  transmissionStateChanged
attr title  "Radio transmission state, count"
scalar scenarioPRJP1.node[81].wlan[0].radio 	receptionState:count 	559349
attr interpolationmode  sample-hold
attr source  receptionStateChanged
attr title  "Radio reception state, count"
scalar scenarioPRJP1.node[81].wlan[0].radio 	radioMode:count 	65834
attr interpolationmode  sample-hold
attr source  radioModeChanged
attr title  "Radio mode, count"
statistic scenarioPRJP1.node[81].wlan[0].radio 	symbolErrorRate:histogram
field count 0
field mean -nan
field stddev -nan
field sum 0
field sqrsum 0
field min -nan
field max -nan
attr source  symbolErrorRate
attr title  "Symbol error rate, histogram"
bin	-INF	0
bin	-0.5	0
bin	-0.46666666666667	0
bin	-0.43333333333333	0
bin	-0.4	0
bin	-0.36666666666667	0
bin	-0.33333333333333	0
bin	-0.3	0
bin	-0.26666666666667	0
bin	-0.23333333333333	0
bin	-0.2	0
bin	-0.16666666666667	0
bin	-0.13333333333333	0
bin	-0.1	0
bin	-0.066666666666667	0
bin	-0.033333333333333	0
bin	0	0
bin	0.033333333333333	0
bin	0.066666666666667	0
bin	0.1	0
bin	0.13333333333333	0
bin	0.16666666666667	0
bin	0.2	0
bin	0.23333333333333	0
bin	0.26666666666667	0
bin	0.3	0
bin	0.33333333333333	0
bin	0.36666666666667	0
bin	0.4	0
bin	0.43333333333333	0
bin	0.46666666666667	0
bin	0.5	0
statistic scenarioPRJP1.node[81].wlan[0].radio 	bitErrorRate:histogram
field count 0
field mean -nan
field stddev -nan
field sum 0
field sqrsum 0
field min -nan
field max -nan
attr source  bitErrorRate
attr title  "Bit error rate, histogram"
bin	-INF	0
bin	-0.5	0
bin	-0.46666666666667	0
bin	-0.43333333333333	0
bin	-0.4	0
bin	-0.36666666666667	0
bin	-0.33333333333333	0
bin	-0.3	0
bin	-0.26666666666667	0
bin	-0.23333333333333	0
bin	-0.2	0
bin	-0.16666666666667	0
bin	-0.13333333333333	0
bin	-0.1	0
bin	-0.066666666666667	0
bin	-0.033333333333333	0
bin	0	0
bin	0.033333333333333	0
bin	0.066666666666667	0
bin	0.1	0
bin	0.13333333333333	0
bin	0.16666666666667	0
bin	0.2	0
bin	0.23333333333333	0
bin	0.26666666666667	0
bin	0.3	0
bin	0.33333333333333	0
bin	0.36666666666667	0
bin	0.4	0
bin	0.43333333333333	0
bin	0.46666666666667	0
bin	0.5	0
statistic scenarioPRJP1.node[81].wlan[0].radio 	packetErrorRate:histogram
field count 243949
field mean 0.13109209295063
field stddev 0.32824483100933
field sum 31979.784983214
field sqrsum 30476.393479348
field min 0
field max 1
attr source  packetErrorRate
attr title  "Packet error rate, histogram"
bin	-INF	0
bin	-0.018903871887292	0
bin	-0.016383355635653	0
bin	-0.013862839384014	0
bin	-0.011342323132375	0
bin	-0.0088218068807362	0
bin	-0.0063012906290973	0
bin	-0.0037807743774584	0
bin	-0.0012602581258195	197773
bin	0.0012602581258195	2547
bin	0.0037807743774584	1258
bin	0.0063012906290973	776
bin	0.0088218068807362	622
bin	0.011342323132375	519
bin	0.013862839384014	374
bin	0.016383355635653	364
bin	0.018903871887292	329
bin	0.021424388138931	271
bin	0.02394490439057	226
bin	0.026465420642209	226
bin	0.028985936893847	192
bin	0.031506453145486	184
bin	0.034026969397125	147
bin	0.036547485648764	157
bin	0.039068001900403	166
bin	0.041588518152042	155
bin	0.044109034403681	140
bin	0.04662955065532	129
bin	0.049150066906959	139
bin	0.051670583158598	101
bin	0.054191099410237	99
bin	0.056711615661875	37055
statistic scenarioPRJP1.node[81].wlan[0].radio 	minSNIR:histogram
field count 243949
field mean 6077.4958821948
field stddev 52170.299549566
field sum 1482599042.9655
field sqrsum 6.7297355693282e+14
field min 0.00016813222561151
field max 2131585.8893728
attr source  minSNIR
attr title  "Min SNIR, histogram"
bin	-INF	0
bin	-1648.5517409562	0
bin	-1428.4499281185	0
bin	-1208.3481152808	0
bin	-988.24630244308	0
bin	-768.14448960539	0
bin	-548.0426767677	0
bin	-327.94086393	0
bin	-107.83905109231	152336
bin	112.26276174538	32800
bin	332.36457458307	11228
bin	552.46638742077	5804
bin	772.56820025846	3814
bin	992.67001309615	2885
bin	1212.7718259338	2257
bin	1432.8736387715	2019
bin	1652.9754516092	1746
bin	1873.0772644469	1396
bin	2093.1790772846	1171
bin	2313.2808901223	1045
bin	2533.38270296	966
bin	2753.4845157977	951
bin	2973.5863286354	794
bin	3193.6881414731	690
bin	3413.7899543108	499
bin	3633.8917671485	429
bin	3853.9935799862	459
bin	4074.0953928239	401
bin	4294.1972056615	384
bin	4514.2990184992	321
bin	4734.4008313369	343
bin	4954.5026441746	19211
scalar scenarioPRJP1.node[81].lo0.lo 	droppedPkBitError:count 	0
attr interpolationmode  none
attr source  dropPkBitError
attr title  "packets dropped/bit error, count"
scalar scenarioPRJP1.node[81].lo0.lo 	droppedPkBitError:sum(packetBytes) 	0
attr interpolationmode  none
attr source  dropPkBitError
attr title  "packets dropped/bit error, sum(packetBytes)"
scalar scenarioPRJP1.node[81].lo0.lo 	rcvdPkFromHL:count 	0
attr interpolationmode  none
attr source  packetReceivedFromUpper
attr title  "packets received from higher layer, count"
scalar scenarioPRJP1.node[81].lo0.lo 	rcvdPkFromHL:sum(packetBytes) 	0
attr interpolationmode  none
attr source  packetReceivedFromUpper
attr title  "packets received from higher layer, sum(packetBytes)"
scalar scenarioPRJP1.node[81].lo0.lo 	passedUpPk:count 	0
attr interpolationmode  none
attr source  packetSentToUpper
attr title  "packets passed to higher layer, count"
scalar scenarioPRJP1.node[81].lo0.lo 	passedUpPk:sum(packetBytes) 	0
attr interpolationmode  none
attr source  packetSentToUpper
attr title  "packets passed to higher layer, sum(packetBytes)"
scalar scenarioPRJP1.node[1].app 	"Total sent" 	2605
scalar scenarioPRJP1.node[1].app 	"Total received" 	167
scalar scenarioPRJP1.node[1].app 	"Total deleted" 	64
scalar scenarioPRJP1.node[1].app 	dropPk:count 	64
attr interpolationmode  none
attr source  dropPk
attr title  "packets dropped, count"
scalar scenarioPRJP1.node[1].app 	dropPk:sum(packetBytes) 	32768
attr interpolationmode  none
attr source  dropPk
attr title  "packets dropped, sum(packetBytes)"
scalar scenarioPRJP1.node[1].app 	outOfOrderPk:count 	30
attr interpolationmode  none
attr source  outOfOrderPk
attr title  "packets received out of order, count"
scalar scenarioPRJP1.node[1].app 	outOfOrderPk:sum(packetBytes) 	15360
attr interpolationmode  none
attr source  outOfOrderPk
attr title  "packets received out of order, sum(packetBytes)"
scalar scenarioPRJP1.node[1].app 	rcvdPk:count 	167
attr interpolationmode  none
attr source  rcvdPk
attr title  "packets received, count"
scalar scenarioPRJP1.node[1].app 	rcvdPk:sum(packetBytes) 	85504
attr interpolationmode  none
attr source  rcvdPk
attr title  "packets received, sum(packetBytes)"
statistic scenarioPRJP1.node[1].app 	endToEndDelay:histogram
field count 167
field mean 0.88524982471826
field stddev 3.3818486791324
field sum 147.83672072795
field sqrsum 2029.3979122106
field min 0.000945022685
field max 19.066560039389
attr interpolationmode  none
attr source  messageAge(rcvdPk)
attr title  "delay, histogram"
attr unit  s
bin	-INF	0
bin	-9.2915412269035	0
bin	-8.0525430602917	0
bin	-6.8135448936799	0
bin	-5.5745467270681	0
bin	-4.3355485604563	0
bin	-3.0965503938445	0
bin	-1.8575522272327	0
bin	-0.6185540606209	147
bin	0.6204441059909	6
bin	1.8594422726027	3
bin	3.0984404392145	2
bin	4.3374386058263	1
bin	5.5764367724381	0
bin	6.8154349390499	1
bin	8.0544331056617	1
bin	9.2934312722735	0
bin	10.532429438885	0
bin	11.771427605497	0
bin	13.010425772109	1
bin	14.249423938721	0
bin	15.488422105333	1
bin	16.727420271944	1
bin	17.966418438556	3
bin	19.205416605168	0
bin	20.44441477178	0
bin	21.683412938391	0
bin	22.922411105003	0
bin	24.161409271615	0
bin	25.400407438227	0
bin	26.639405604839	0
bin	27.878403771451	0
scalar scenarioPRJP1.node[1].app 	sentPk:count 	2605
attr interpolationmode  none
attr source  sentPk
attr title  "packets sent, count"
scalar scenarioPRJP1.node[1].app 	sentPk:sum(packetBytes) 	1333760
attr interpolationmode  none
attr source  sentPk
attr title  "packets sent, sum(packetBytes)"
scalar scenarioPRJP1.node[1].udp 	droppedPkBadChecksum:count 	0
attr interpolationmode  none
attr title  "packets dropped (checksum error), count"
scalar scenarioPRJP1.node[1].udp 	droppedPkWrongPort:count 	0
attr interpolationmode  none
attr title  "packets dropped (wrong port), count"
scalar scenarioPRJP1.node[1].udp 	passedUpPk:count 	261
attr interpolationmode  none
attr title  "packets passed up, count"
scalar scenarioPRJP1.node[1].udp 	rcvdPk:count 	261
attr interpolationmode  none
attr source  rcvdPk
attr title  "packets received, count"
scalar scenarioPRJP1.node[1].udp 	rcvdPk:sum(packetBytes) 	135720
attr interpolationmode  none
attr source  rcvdPk
attr title  "packets received, sum(packetBytes)"
scalar scenarioPRJP1.node[1].udp 	sentPk:count 	2605
attr interpolationmode  none
attr source  sentPk
attr title  "packets sent, count"
scalar scenarioPRJP1.node[1].udp 	sentPk:sum(packetBytes) 	1354600
attr interpolationmode  none
attr source  sentPk
attr title  "packets sent, sum(packetBytes)"
scalar scenarioPRJP1.node[1].networkLayer.arp 	failedARPResolution:count 	16
attr title  "ARP failed resolutions, count"
scalar scenarioPRJP1.node[1].networkLayer.arp 	completedARPResolution:count 	729
attr title  "ARP completed resolutions, count"
scalar scenarioPRJP1.node[1].networkLayer.arp 	initiatedARPResolution:count 	105
attr title  "ARP initiated resolutions, count"
scalar scenarioPRJP1.node[1].networkLayer.arp 	sentReply:count 	54
attr title  "ARP replies sent, count"
scalar scenarioPRJP1.node[1].networkLayer.arp 	sentReq:count 	169
attr title  "ARP request sent, count"
scalar scenarioPRJP1.node[1].mobility 	startTime 	0.1
scalar scenarioPRJP1.node[1].mobility 	totalTime 	949.8
scalar scenarioPRJP1.node[1].mobility 	stopTime 	950
scalar scenarioPRJP1.node[1].mobility 	minSpeed 	2.4754271953468e-13
scalar scenarioPRJP1.node[1].mobility 	maxSpeed 	19.657914093295
scalar scenarioPRJP1.node[1].mobility 	totalDistance 	10380.837257616
scalar scenarioPRJP1.node[1].mobility 	totalCO2Emission 	2855.9337285156
scalar scenarioPRJP1.node[1].wlan[0].mgmt 	dataQueueLen:max 	24
attr interpolationmode  sample-hold
attr title  "data queue length, max"
scalar scenarioPRJP1.node[1].wlan[0].mgmt 	dataQueueLen:timeavg 	0
attr interpolationmode  sample-hold
attr title  "data queue length, timeavg"
scalar scenarioPRJP1.node[1].wlan[0].mgmt 	dropPkByQueue:count 	0
attr interpolationmode  none
attr source  dropPkByQueue
attr title  "packets dropped by queue, count"
scalar scenarioPRJP1.node[1].wlan[0].mgmt 	dropPkByQueue:sum(packetBytes) 	0
attr interpolationmode  none
attr source  dropPkByQueue
attr title  "packets dropped by queue, sum(packetBytes)"
scalar scenarioPRJP1.node[1].wlan[0].mac 	"number of received packets" 	3344
scalar scenarioPRJP1.node[1].wlan[0].mac 	"number of collisions" 	33899
scalar scenarioPRJP1.node[1].wlan[0].mac 	"number of internal collisions" 	0
scalar scenarioPRJP1.node[1].wlan[0].mac 	"number of retry for AC 0" 	5893
scalar scenarioPRJP1.node[1].wlan[0].mac 	"number of retry for AC 1" 	0
scalar scenarioPRJP1.node[1].wlan[0].mac 	"number of retry for AC 2" 	0
scalar scenarioPRJP1.node[1].wlan[0].mac 	"number of retry for AC 3" 	0
scalar scenarioPRJP1.node[1].wlan[0].mac 	"sent and received bits" 	15035200
scalar scenarioPRJP1.node[1].wlan[0].mac 	"sent packet within AC 0" 	737
scalar scenarioPRJP1.node[1].wlan[0].mac 	"sent packet within AC 1" 	0
scalar scenarioPRJP1.node[1].wlan[0].mac 	"sent packet within AC 2" 	0
scalar scenarioPRJP1.node[1].wlan[0].mac 	"sent packet within AC 3" 	0
scalar scenarioPRJP1.node[1].wlan[0].mac 	"sent in TXOP " 	0
scalar scenarioPRJP1.node[1].wlan[0].mac 	"sentWithoutRetry AC 0" 	653
scalar scenarioPRJP1.node[1].wlan[0].mac 	"sentWithoutRetry AC 1" 	0
scalar scenarioPRJP1.node[1].wlan[0].mac 	"sentWithoutRetry AC 2" 	0
scalar scenarioPRJP1.node[1].wlan[0].mac 	"sentWithoutRetry AC 3" 	0
scalar scenarioPRJP1.node[1].wlan[0].mac 	"numGivenUp AC 0" 	954
scalar scenarioPRJP1.node[1].wlan[0].mac 	"numGivenUp AC 1" 	0
scalar scenarioPRJP1.node[1].wlan[0].mac 	"numGivenUp AC 2" 	0
scalar scenarioPRJP1.node[1].wlan[0].mac 	"numGivenUp AC 3" 	0
scalar scenarioPRJP1.node[1].wlan[0].mac 	"numDropped AC 0" 	0
scalar scenarioPRJP1.node[1].wlan[0].mac 	"numDropped AC 1" 	0
scalar scenarioPRJP1.node[1].wlan[0].mac 	"numDropped AC 2" 	0
scalar scenarioPRJP1.node[1].wlan[0].mac 	"numDropped AC 3" 	0
[...]
attr interpolationmode  none
attr source  packetSentToUpper
attr title  "packets passed to higher layer, sum(packetBytes)"
statistic scenarioPRJP1.node[72].wlan[0].radio 	radioChannel:histogram
field count 1
field mean 3
field stddev -nan
field sum 3
field sqrsum 9
field min 3
field max 3
attr interpolationmode  sample-hold
attr source  radioChannelChanged
attr title  "Radio channel, histogram"
bin	-INF	0
bin	2	0
bin	3	1
bin	4	0
scalar scenarioPRJP1.node[72].wlan[0].radio 	transmissionState:count 	159288
attr interpolationmode  sample-hold
attr source  transmissionStateChanged
attr title  "Radio transmission state, count"
scalar scenarioPRJP1.node[72].wlan[0].radio 	receptionState:count 	479512
attr interpolationmode  sample-hold
attr source  receptionStateChanged
attr title  "Radio reception state, count"
scalar scenarioPRJP1.node[72].wlan[0].radio 	radioMode:count 	79646
attr interpolationmode  sample-hold
attr source  radioModeChanged
attr title  "Radio mode, count"
statistic scenarioPRJP1.node[72].wlan[0].radio 	symbolErrorRate:histogram
field count 0
field mean -nan
field stddev -nan
field sum 0
field sqrsum 0
field min -nan
field max -nan
attr source  symbolErrorRate
attr title  "Symbol error rate, histogram"
bin	-INF	0
bin	-0.5	0
bin	-0.46666666666667	0
bin	-0.43333333333333	0
bin	-0.4	0
bin	-0.36666666666667	0
bin	-0.33333333333333	0
bin	-0.3	0
bin	-0.26666666666667	0
bin	-0.23333333333333	0
bin	-0.2	0
bin	-0.16666666666667	0
bin	-0.13333333333333	0
bin	-0.1	0
bin	-0.066666666666667	0
bin	-0.033333333333333	0
bin	0	0
bin	0.033333333333333	0
bin	0.066666666666667	0
bin	0.1	0
bin	0.13333333333333	0
bin	0.16666666666667	0
bin	0.2	0
bin	0.23333333333333	0
bin	0.26666666666667	0
bin	0.3	0
bin	0.33333333333333	0
bin	0.36666666666667	0
bin	0.4	0
bin	0.43333333333333	0
bin	0.46666666666667	0
bin	0.5	0
statistic scenarioPRJP1.node[72].wlan[0].radio 	bitErrorRate:histogram
field count 0
field mean -nan
field stddev -nan
field sum 0
field sqrsum 0
field min -nan
field max -nan
attr source  bitErrorRate
attr title  "Bit error rate, histogram"
bin	-INF	0
bin	-0.5	0
bin	-0.46666666666667	0
bin	-0.43333333333333	0
bin	-0.4	0
bin	-0.36666666666667	0
bin	-0.33333333333333	0
bin	-0.3	0
bin	-0.26666666666667	0
bin	-0.23333333333333	0
bin	-0.2	0
bin	-0.16666666666667	0
bin	-0.13333333333333	0
bin	-0.1	0
bin	-0.066666666666667	0
bin	-0.033333333333333	0
bin	0	0
bin	0.033333333333333	0
bin	0.066666666666667	0
bin	0.1	0
bin	0.13333333333333	0
bin	0.16666666666667	0
bin	0.2	0
bin	0.23333333333333	0
bin	0.26666666666667	0
bin	0.3	0
bin	0.33333333333333	0
bin	0.36666666666667	0
bin	0.4	0
bin	0.43333333333333	0
bin	0.46666666666667	0
bin	0.5	0
statistic scenarioPRJP1.node[72].wlan[0].radio 	packetErrorRate:histogram
field count 197954
field mean 0.10877445788548
field stddev 0.30287521288717
field sum 21532.339036262
field sqrsum 20501.069163257
field min 0
field max 1
attr source  packetErrorRate
attr title  "Packet error rate, histogram"
bin	-INF	0
bin	-0.5	0
bin	-0.43333333333333	0
bin	-0.36666666666667	0
bin	-0.3	0
bin	-0.23333333333333	0
bin	-0.16666666666667	0
bin	-0.1	0
bin	-0.033333333333333	172023
bin	0.033333333333333	1907
bin	0.1	827
bin	0.16666666666667	602
bin	0.23333333333333	479
bin	0.3	376
bin	0.36666666666667	319
bin	0.43333333333333	266
bin	0.5	251
bin	0.56666666666667	268
bin	0.63333333333333	247
bin	0.7	273
bin	0.76666666666667	288
bin	0.83333333333333	339
bin	0.9	524
bin	0.96666666666667	18965
bin	1.0333333333333	0
bin	1.1	0
bin	1.1666666666667	0
bin	1.2333333333333	0
bin	1.3	0
bin	1.3666666666667	0
bin	1.4333333333333	0
bin	1.5	0
statistic scenarioPRJP1.node[72].wlan[0].radio 	minSNIR:histogram
field count 197954
field mean 8362.7501723059
field stddev 50698.039427004
field sum 1655439847.6086
field sqrsum 5.2264088412928e+14
field min 0.00017061538462727
field max 1986911.6830688
attr source  minSNIR
attr title  "Min SNIR, histogram"
bin	-INF	0
bin	-3359.6030232154	0
bin	-2911.4972874161	0
bin	-2463.3915516167	0
bin	-2015.2858158173	0
bin	-1567.1800800179	0
bin	-1119.0743442186	0
bin	-670.96860841918	0
bin	-222.86287261981	131468
bin	225.24286317957	18714
bin	673.34859897894	6589
bin	1121.4543347783	4253
bin	1569.5600705777	3043
bin	2017.6658063771	2216
bin	2465.7715421764	1911
bin	2913.8772779758	1587
bin	3361.9830137752	1226
bin	3810.0887495746	1069
bin	4258.1944853739	874
bin	4706.3002211733	720
bin	5154.4059569727	800
bin	5602.5116927721	760
bin	6050.6174285714	604
bin	6498.7231643708	534
bin	6946.8289001702	552
bin	7394.9346359696	488
bin	7843.0403717689	1357
bin	8291.1461075683	397
bin	8739.2518433677	363
bin	9187.3575791671	249
bin	9635.4633149664	401
bin	10083.569050766	17779
scalar scenarioPRJP1.node[72].lo0.lo 	droppedPkBitError:count 	0
attr interpolationmode  none
attr source  dropPkBitError
attr title  "packets dropped/bit error, count"
scalar scenarioPRJP1.node[72].lo0.lo 	droppedPkBitError:sum(packetBytes) 	0
attr interpolationmode  none
attr source  dropPkBitError
attr title  "packets dropped/bit error, sum(packetBytes)"
scalar scenarioPRJP1.node[72].lo0.lo 	rcvdPkFromHL:count 	0
attr interpolationmode  none
attr source  packetReceivedFromUpper
attr title  "packets received from higher layer, count"
scalar scenarioPRJP1.node[72].lo0.lo 	rcvdPkFromHL:sum(packetBytes) 	0
attr interpolationmode  none
attr source  packetReceivedFromUpper
attr title  "packets received from higher layer, sum(packetBytes)"
scalar scenarioPRJP1.node[72].lo0.lo 	passedUpPk:count 	0
attr interpolationmode  none
attr source  packetSentToUpper
attr title  "packets passed to higher layer, count"
scalar scenarioPRJP1.node[72].lo0.lo 	passedUpPk:sum(packetBytes) 	0
attr interpolationmode  none
attr source  packetSentToUpper
attr title  "packets passed to higher layer, sum(packetBytes)"
scalar scenarioPRJP1.node[88].app 	"Total sent" 	2609
scalar scenarioPRJP1.node[88].app 	"Total received" 	175
scalar scenarioPRJP1.node[88].app 	"Total deleted" 	142
scalar scenarioPRJP1.node[88].app 	dropPk:count 	142
attr interpolationmode  none
attr source  dropPk
attr title  "packets dropped, count"
scalar scenarioPRJP1.node[88].app 	dropPk:sum(packetBytes) 	72704
attr interpolationmode  none
attr source  dropPk
attr title  "packets dropped, sum(packetBytes)"
scalar scenarioPRJP1.node[88].app 	outOfOrderPk:count 	39
attr interpolationmode  none
attr source  outOfOrderPk
attr title  "packets received out of order, count"
scalar scenarioPRJP1.node[88].app 	outOfOrderPk:sum(packetBytes) 	19968
attr interpolationmode  none
attr source  outOfOrderPk
attr title  "packets received out of order, sum(packetBytes)"
scalar scenarioPRJP1.node[88].app 	rcvdPk:count 	175
attr interpolationmode  none
attr source  rcvdPk
attr title  "packets received, count"
scalar scenarioPRJP1.node[88].app 	rcvdPk:sum(packetBytes) 	89600
attr interpolationmode  none
attr source  rcvdPk
attr title  "packets received, sum(packetBytes)"
statistic scenarioPRJP1.node[88].app 	endToEndDelay:histogram
field count 175
field mean 1.7826594567933
field stddev 4.2114524210346
field sum 311.96540493882
field sqrsum 3642.2497593736
field min 0.000945049723
field max 19.923306394378
attr interpolationmode  none
attr source  messageAge(rcvdPk)
attr title  "delay, histogram"
attr unit  s
bin	-INF	0
bin	-9.9602356226045	0
bin	-8.6320781996275	0
bin	-7.3039207766505	0
bin	-5.9757633536735	0
bin	-4.6476059306965	0
bin	-3.3194485077195	0
bin	-1.9912910847425	0
bin	-0.6631336617655	134
bin	0.6650237612115	10
bin	1.9931811841885	6
bin	3.3213386071655	3
bin	4.6494960301425	1
bin	5.9776534531195	2
bin	7.3058108760965	2
bin	8.6339682990735	3
bin	9.9621257220505	1
bin	11.290283145027	4
bin	12.618440568004	2
bin	13.946597990982	3
bin	15.274755413959	0
bin	16.602912836936	3
bin	17.931070259913	0
bin	19.25922768289	1
bin	20.587385105867	0
bin	21.915542528843	0
bin	23.24369995182	0
bin	24.571857374797	0
bin	25.900014797774	0
bin	27.228172220751	0
bin	28.556329643728	0
bin	29.884487066705	0
scalar scenarioPRJP1.node[88].app 	sentPk:count 	2609
attr interpolationmode  none
attr source  sentPk
attr title  "packets sent, count"
scalar scenarioPRJP1.node[88].app 	sentPk:sum(packetBytes) 	1335808
attr interpolationmode  none
attr source  sentPk
attr title  "packets sent, sum(packetBytes)"
scalar scenarioPRJP1.node[88].udp 	droppedPkBadChecksum:count 	0
attr interpolationmode  none
attr title  "packets dropped (checksum error), count"
scalar scenarioPRJP1.node[88].udp 	droppedPkWrongPort:count 	0
attr interpolationmode  none
attr title  "packets dropped (wrong port), count"
scalar scenarioPRJP1.node[88].udp 	passedUpPk:count 	356
attr interpolationmode  none
attr title  "packets passed up, count"
scalar scenarioPRJP1.node[88].udp 	rcvdPk:count 	356
attr interpolationmode  none
attr source  rcvdPk
attr title  "packets received, count"
scalar scenarioPRJP1.node[88].udp 	rcvdPk:sum(packetBytes) 	185120
attr interpolationmode  none
attr source  rcvdPk
attr title  "packets received, sum(packetBytes)"
scalar scenarioPRJP1.node[88].udp 	sentPk:count 	2609
attr interpolationmode  none
attr source  sentPk
attr title  "packets sent, count"
scalar scenarioPRJP1.node[88].udp 	sentPk:sum(packetBytes) 	1356680
attr interpolationmode  none
attr source  sentPk
attr title  "packets sent, sum(packetBytes)"
scalar scenarioPRJP1.node[88].networkLayer.arp 	failedARPResolution:count 	20
attr title  "ARP failed resolutions, count"
scalar scenarioPRJP1.node[88].networkLayer.arp 	completedARPResolution:count 	821
attr title  "ARP completed resolutions, count"
scalar scenarioPRJP1.node[88].networkLayer.arp 	initiatedARPResolution:count 	111
attr title  "ARP initiated resolutions, count"
scalar scenarioPRJP1.node[88].networkLayer.arp 	sentReply:count 	68
attr title  "ARP replies sent, count"
scalar scenarioPRJP1.node[88].networkLayer.arp 	sentReq:count 	181
attr title  "ARP request sent, count"
scalar scenarioPRJP1.node[88].mobility 	startTime 	9.7
scalar scenarioPRJP1.node[88].mobility 	totalTime 	940.2
scalar scenarioPRJP1.node[88].mobility 	stopTime 	950
scalar scenarioPRJP1.node[88].mobility 	minSpeed 	2.4754468163118e-13
scalar scenarioPRJP1.node[88].mobility 	maxSpeed 	18.166072090289
scalar scenarioPRJP1.node[88].mobility 	totalDistance 	8848.9023262209
scalar scenarioPRJP1.node[88].mobility 	totalCO2Emission 	2481.9470358713
scalar scenarioPRJP1.node[88].wlan[0].mgmt 	dataQueueLen:max 	16
attr interpolationmode  sample-hold
attr title  "data queue length, max"
scalar scenarioPRJP1.node[88].wlan[0].mgmt 	dataQueueLen:timeavg 	0
attr interpolationmode  sample-hold
attr title  "data queue length, timeavg"
scalar scenarioPRJP1.node[88].wlan[0].mgmt 	dropPkByQueue:count 	0
attr interpolationmode  none
attr source  dropPkByQueue
attr title  "packets dropped by queue, count"
scalar scenarioPRJP1.node[88].wlan[0].mgmt 	dropPkByQueue:sum(packetBytes) 	0
attr interpolationmode  none
attr source  dropPkByQueue
attr title  "packets dropped by queue, sum(packetBytes)"
scalar scenarioPRJP1.node[88].wlan[0].mac 	"number of received packets" 	10764
scalar scenarioPRJP1.node[88].wlan[0].mac 	"number of collisions" 	43334
scalar scenarioPRJP1.node[88].wlan[0].mac 	"number of internal collisions" 	0
scalar scenarioPRJP1.node[88].wlan[0].mac 	"number of retry for AC 0" 	7410
scalar scenarioPRJP1.node[88].wlan[0].mac 	"number of retry for AC 1" 	0
scalar scenarioPRJP1.node[88].wlan[0].mac 	"number of retry for AC 2" 	0
scalar scenarioPRJP1.node[88].wlan[0].mac 	"number of retry for AC 3" 	0
scalar scenarioPRJP1.node[88].wlan[0].mac 	"sent and received bits" 	21243232
scalar scenarioPRJP1.node[88].wlan[0].mac 	"sent packet within AC 0" 	7410
scalar scenarioPRJP1.node[88].wlan[0].mac 	"sent packet within AC 1" 	0
scalar scenarioPRJP1.node[88].wlan[0].mac 	"sent packet within AC 2" 	0
scalar scenarioPRJP1.node[88].wlan[0].mac 	"sent packet within AC 3" 	0
scalar scenarioPRJP1.node[88].wlan[0].mac 	"sent in TXOP " 	0
scalar scenarioPRJP1.node[88].wlan[0].mac 	"sentWithoutRetry AC 0" 	6949
scalar scenarioPRJP1.node[88].wlan[0].mac 	"sentWithoutRetry AC 1" 	0
scalar scenarioPRJP1.node[88].wlan[0].mac 	"sentWithoutRetry AC 2" 	0
scalar scenarioPRJP1.node[88].wlan[0].mac 	"sentWithoutRetry AC 3" 	0
scalar scenarioPRJP1.node[88].wlan[0].mac 	"numGivenUp AC 0" 	1131
scalar scenarioPRJP1.node[88].wlan[0].mac 	"numGivenUp AC 1" 	0
scalar scenarioPRJP1.node[88].wlan[0].mac 	"numGivenUp AC 2" 	0
scalar scenarioPRJP1.node[88].wlan[0].mac 	"numGivenUp AC 3" 	0
scalar scenarioPRJP1.node[88].wlan[0].mac 	"numDropped AC 0" 	7
scalar scenarioPRJP1.node[88].wlan[0].mac 	"numDropped AC 1" 	0
scalar scenarioPRJP1.node[88].wlan[0].mac 	"numDropped AC 2" 	0
scalar scenarioPRJP1.node[88].wlan[0].mac 	"numDropped AC 3" 	0
scalar scenarioPRJP1.node[88].wlan[0].mac 	rcvdPkFromLL:count 	272044
attr interpolationmode  none
attr source  packetReceivedFromLower
attr title  "packets received from lower layer, count"
scalar scenarioPRJP1.node[88].wlan[0].mac 	rcvdPkFromLL:sum(packetBytes) 	42953156
attr interpolationmode  none
attr source  packetReceivedFromLower
attr title  "packets received from lower layer, sum(packetBytes)"
scalar scenarioPRJP1.node[88].wlan[0].mac 	sentDownPk:count 	46066
attr interpolationmode  none
attr source  packetSentToLower
attr title  "packets sent to lower layer, count"
scalar scenarioPRJP1.node[88].wlan[0].mac 	sentDownPk:sum(packetBytes) 	6237660
attr interpolationmode  none
attr source  packetSentToLower
attr title  "packets sent to lower layer, sum(packetBytes)"
scalar scenarioPRJP1.node[88].wlan[0].mac 	rcvdPkFromHL:count 	27899
attr interpolationmode  none
attr source  packetReceivedFromUpper
attr title  "packets received from higher layer, count"
scalar scenarioPRJP1.node[88].wlan[0].mac 	rcvdPkFromHL:sum(packetBytes) 	3123304
attr interpolationmode  none
attr source  packetReceivedFromUpper
attr title  "packets received from higher layer, sum(packetBytes)"
scalar scenarioPRJP1.node[88].wlan[0].mac 	passedUpPk:count 	116986
attr interpolationmode  none
attr source  packetSentToUpper
attr title  "packets passed to higher layer, count"
scalar scenarioPRJP1.node[88].wlan[0].mac 	passedUpPk:sum(packetBytes) 	10923200
attr interpolationmode  none
attr source  packetSentToUpper
attr title  "packets passed to higher layer, sum(packetBytes)"
statistic scenarioPRJP1.node[88].wlan[0].radio 	radioChannel:histogram
field count 1
field mean 3
field stddev -nan
field sum 3
field sqrsum 9
field min 3
field max 3
attr interpolationmode  sample-hold
attr source  radioChannelChanged
attr title  "Radio channel, histogram"
bin	-INF	0
bin	2	0
bin	3	1
bin	4	0
scalar scenarioPRJP1.node[88].wlan[0].radio 	transmissionState:count 	184264
attr interpolationmode  sample-hold
attr source  transmissionStateChanged
attr title  "Radio transmission state, count"
scalar scenarioPRJP1.node[88].wlan[0].radio 	receptionState:count 	642956
attr interpolationmode  sample-hold
attr source  receptionStateChanged
attr title  "Radio reception state, count"
scalar scenarioPRJP1.node[88].wlan[0].radio 	radioMode:count 	92134
attr interpolationmode  sample-hold
attr source  radioModeChanged
attr title  "Radio mode, count"
statistic scenarioPRJP1.node[88].wlan[0].radio 	symbolErrorRate:histogram
field count 0
field mean -nan
field stddev -nan
field sum 0
field sqrsum 0
field min -nan
field max -nan
attr source  symbolErrorRate
attr title  "Symbol error rate, histogram"
bin	-INF	0
bin	-0.5	0
bin	-0.46666666666667	0
bin	-0.43333333333333	0
bin	-0.4	0
bin	-0.36666666666667	0
bin	-0.33333333333333	0
bin	-0.3	0
bin	-0.26666666666667	0
bin	-0.23333333333333	0
bin	-0.2	0
bin	-0.16666666666667	0
bin	-0.13333333333333	0
bin	-0.1	0
bin	-0.066666666666667	0
bin	-0.033333333333333	0
bin	0	0
bin	0.033333333333333	0
bin	0.066666666666667	0
bin	0.1	0
bin	0.13333333333333	0
bin	0.16666666666667	0
bin	0.2	0
bin	0.23333333333333	0
bin	0.26666666666667	0
bin	0.3	0
bin	0.33333333333333	0
bin	0.36666666666667	0
bin	0.4	0
bin	0.43333333333333	0
bin	0.46666666666667	0
bin	0.5	0
statistic scenarioPRJP1.node[88].wlan[0].radio 	bitErrorRate:histogram
field count 0
field mean -nan
field stddev -nan
field sum 0
field sqrsum 0
field min -nan
field max -nan
attr source  bitErrorRate
attr title  "Bit error rate, histogram"
bin	-INF	0
bin	-0.5	0
bin	-0.46666666666667	0
bin	-0.43333333333333	0
bin	-0.4	0
bin	-0.36666666666667	0
bin	-0.33333333333333	0
bin	-0.3	0
bin	-0.26666666666667	0
bin	-0.23333333333333	0
bin	-0.2	0
bin	-0.16666666666667	0
bin	-0.13333333333333	0
bin	-0.1	0
bin	-0.066666666666667	0
bin	-0.033333333333333	0
bin	0	0
bin	0.033333333333333	0
bin	0.066666666666667	0
bin	0.1	0
bin	0.13333333333333	0
bin	0.16666666666667	0
bin	0.2	0
bin	0.23333333333333	0
bin	0.26666666666667	0
bin	0.3	0
bin	0.33333333333333	0
bin	0.36666666666667	0
bin	0.4	0
bin	0.43333333333333	0
bin	0.46666666666667	0
bin	0.5	0
statistic scenarioPRJP1.node[88].wlan[0].radio 	packetErrorRate:histogram
field count 272044
field mean 0.13508736632765
field stddev 0.33326024597921
field sum 36749.70748524
field sqrsum 35178.167381964
field min 0
field max 1
attr source  packetErrorRate
attr title  "Packet error rate, histogram"
bin	-INF	0
bin	-0.5	0
bin	-0.43333333333333	0
bin	-0.36666666666667	0
bin	-0.3	0
bin	-0.23333333333333	0
bin	-0.16666666666667	0
bin	-0.1	0
bin	-0.033333333333333	228711
bin	0.033333333333333	2746
bin	0.1	1317
bin	0.16666666666667	891
bin	0.23333333333333	657
bin	0.3	600
bin	0.36666666666667	492
bin	0.43333333333333	452
bin	0.5	413
bin	0.56666666666667	398
bin	0.63333333333333	401
bin	0.7	417
bin	0.76666666666667	433
bin	0.83333333333333	508
bin	0.9	722
bin	0.96666666666667	32886
bin	1.0333333333333	0
bin	1.1	0
bin	1.1666666666667	0
bin	1.2333333333333	0
bin	1.3	0
bin	1.3666666666667	0
bin	1.4333333333333	0
bin	1.5	0
statistic scenarioPRJP1.node[88].wlan[0].radio 	minSNIR:histogram
field count 272044
field mean 4611.0850530519
field stddev 33779.373255745
field sum 1254418022.1725
field sqrsum 3.1619782082664e+14
field min 0.00071270501730335
field max 1534941.7954712
attr source  minSNIR
attr title  "Min SNIR, histogram"
bin	-INF	0
bin	-1419.9958134582	0
bin	-1230.542459822	0
bin	-1041.0891061857	0
bin	-851.63575254946	0
bin	-662.1823989132	0
bin	-472.72904527695	0
bin	-283.27569164069	0
bin	-93.822338004439	162575
bin	95.631015631816	34097
bin	285.08436926807	13729
bin	474.53772290433	6748
bin	663.99107654058	4571
bin	853.44443017684	3409
bin	1042.8977838131	2640
bin	1232.3511374493	2231
bin	1421.8044910856	2099
bin	1611.2578447219	1865
bin	1800.7111983581	1365
bin	1990.1645519944	1329
bin	2179.6179056306	1157
bin	2369.0712592669	967
bin	2558.5246129031	909
bin	2747.9779665394	839
bin	2937.4313201756	805
bin	3126.8846738119	613
bin	3316.3380274482	550
bin	3505.7913810844	511
bin	3695.2447347207	516
bin	3884.6980883569	457
bin	4074.1514419932	431
bin	4263.6047956294	27631
scalar scenarioPRJP1.node[88].lo0.lo 	droppedPkBitError:count 	0
attr interpolationmode  none
attr source  dropPkBitError
attr title  "packets dropped/bit error, count"
scalar scenarioPRJP1.node[88].lo0.lo 	droppedPkBitError:sum(packetBytes) 	0
attr interpolationmode  none
attr source  dropPkBitError
attr title  "packets dropped/bit error, sum(packetBytes)"
scalar scenarioPRJP1.node[88].lo0.lo 	rcvdPkFromHL:count 	0
attr interpolationmode  none
attr source  packetReceivedFromUpper
attr title  "packets received from higher layer, count"
scalar scenarioPRJP1.node[88].lo0.lo 	rcvdPkFromHL:sum(packetBytes) 	0
attr interpolationmode  none
attr source  packetReceivedFromUpper
attr title  "packets received from higher layer, sum(packetBytes)"
scalar scenarioPRJP1.node[88].lo0.lo 	passedUpPk:count 	0
attr interpolationmode  none
attr source  packetSentToUpper
attr title  "packets passed to higher layer, count"
scalar scenarioPRJP1.node[88].lo0.lo 	passedUpPk:sum(packetBytes) 	0
attr interpolationmode  none
attr source  packetSentToUpper
attr title  "packets passed to higher layer, sum(packetBytes)"
