version 2
run AODVRouting-FS-100n-20-20150623-12:33:31-32382
attr configname AODVRouting-FS-100n
attr datetime 20150623-12:33:31
attr experiment AODVRouting-FS-100n
attr inifile omnetpp.ini
attr iterationvars ""
attr iterationvars2 $repetition=20
attr measurement ""
attr network Prj_Part1_propag.scenarioPRJP1
attr processid 32382
attr repetition 20
attr replication #20
attr resultdir results
attr runnumber 20
attr seedset 20

scalar scenarioPRJP1.node[50].app 	"Total sent" 	376
scalar scenarioPRJP1.node[50].app 	"Total received" 	46
scalar scenarioPRJP1.node[50].app 	"Total deleted" 	1
scalar scenarioPRJP1.node[50].app 	dropPk:count 	1
attr interpolationmode  none
attr source  dropPk
attr title  "packets dropped, count"
scalar scenarioPRJP1.node[50].app 	dropPk:sum(packetBytes) 	512
attr interpolationmode  none
attr source  dropPk
attr title  "packets dropped, sum(packetBytes)"
scalar scenarioPRJP1.node[50].app 	outOfOrderPk:count 	0
attr interpolationmode  none
attr source  outOfOrderPk
attr title  "packets received out of order, count"
scalar scenarioPRJP1.node[50].app 	outOfOrderPk:sum(packetBytes) 	0
attr interpolationmode  none
attr source  outOfOrderPk
attr title  "packets received out of order, sum(packetBytes)"
scalar scenarioPRJP1.node[50].app 	rcvdPk:count 	46
attr interpolationmode  none
attr source  rcvdPk
attr title  "packets received, count"
scalar scenarioPRJP1.node[50].app 	rcvdPk:sum(packetBytes) 	23552
attr interpolationmode  none
attr source  rcvdPk
attr title  "packets received, sum(packetBytes)"
statistic scenarioPRJP1.node[50].app 	endToEndDelay:histogram
field count 46
field mean 0.82031810988148
field stddev 2.0597613592109
field sum 37.734633054548
field sqrsum 221.8721614248
field min 0.000900531944
field max 9.671707013157
attr interpolationmode  none
attr source  messageAge(rcvdPk)
attr title  "delay, histogram"
attr unit  s
bin	-INF	0
bin	-4.8345027086625	0
bin	-4.1897822765816	0
bin	-3.5450618445008	0
bin	-2.9003414124199	0
bin	-2.255620980339	0
bin	-1.6109005482582	0
bin	-0.9661801161773	0
bin	-0.32145968409643	36
bin	0.32326074798443	2
bin	0.9679811800653	2
bin	1.6127016121462	1
bin	2.257422044227	0
bin	2.9021424763079	0
bin	3.5468629083888	0
bin	4.1915833404696	2
bin	4.8363037725505	0
bin	5.4810242046314	1
bin	6.1257446367122	1
bin	6.7704650687931	0
bin	7.415185500874	0
bin	8.0599059329548	0
bin	8.7046263650357	0
bin	9.3493467971166	1
bin	9.9940672291974	0
bin	10.638787661278	0
bin	11.283508093359	0
bin	11.92822852544	0
bin	12.572948957521	0
bin	13.217669389602	0
bin	13.862389821683	0
bin	14.507110253763	0
scalar scenarioPRJP1.node[50].app 	sentPk:count 	376
attr interpolationmode  none
attr source  sentPk
attr title  "packets sent, count"
scalar scenarioPRJP1.node[50].app 	sentPk:sum(packetBytes) 	192512
attr interpolationmode  none
attr source  sentPk
attr title  "packets sent, sum(packetBytes)"
scalar scenarioPRJP1.node[50].udp 	droppedPkBadChecksum:count 	0
attr interpolationmode  none
attr title  "packets dropped (checksum error), count"
scalar scenarioPRJP1.node[50].udp 	droppedPkWrongPort:count 	0
attr interpolationmode  none
attr title  "packets dropped (wrong port), count"
scalar scenarioPRJP1.node[50].udp 	passedUpPk:count 	47
attr interpolationmode  none
attr title  "packets passed up, count"
scalar scenarioPRJP1.node[50].udp 	rcvdPk:count 	47
attr interpolationmode  none
attr source  rcvdPk
attr title  "packets received, count"
scalar scenarioPRJP1.node[50].udp 	rcvdPk:sum(packetBytes) 	24440
attr interpolationmode  none
attr source  rcvdPk
attr title  "packets received, sum(packetBytes)"
scalar scenarioPRJP1.node[50].udp 	sentPk:count 	376
attr interpolationmode  none
attr source  sentPk
attr title  "packets sent, count"
scalar scenarioPRJP1.node[50].udp 	sentPk:sum(packetBytes) 	195520
attr interpolationmode  none
attr source  sentPk
attr title  "packets sent, sum(packetBytes)"
scalar scenarioPRJP1.node[50].networkLayer.arp 	failedARPResolution:count 	0
attr title  "ARP failed resolutions, count"
scalar scenarioPRJP1.node[50].networkLayer.arp 	completedARPResolution:count 	183
attr title  "ARP completed resolutions, count"
scalar scenarioPRJP1.node[50].networkLayer.arp 	initiatedARPResolution:count 	19
attr title  "ARP initiated resolutions, count"
scalar scenarioPRJP1.node[50].networkLayer.arp 	sentReply:count 	12
attr title  "ARP replies sent, count"
scalar scenarioPRJP1.node[50].networkLayer.arp 	sentReq:count 	27
attr title  "ARP request sent, count"
scalar scenarioPRJP1.node[50].mobility 	startTime 	4.9
scalar scenarioPRJP1.node[50].mobility 	totalTime 	153.4
scalar scenarioPRJP1.node[50].mobility 	stopTime 	158.4
scalar scenarioPRJP1.node[50].mobility 	minSpeed 	2.4754229054913e-13
scalar scenarioPRJP1.node[50].mobility 	maxSpeed 	19.901959643234
scalar scenarioPRJP1.node[50].mobility 	totalDistance 	1483.9701806058
scalar scenarioPRJP1.node[50].mobility 	totalCO2Emission 	493.6483082516
scalar scenarioPRJP1.node[50].wlan[0].mgmt 	dataQueueLen:max 	2
attr interpolationmode  sample-hold
attr title  "data queue length, max"
scalar scenarioPRJP1.node[50].wlan[0].mgmt 	dataQueueLen:timeavg 	0
attr interpolationmode  sample-hold
attr title  "data queue length, timeavg"
scalar scenarioPRJP1.node[50].wlan[0].mgmt 	dropPkByQueue:count 	0
attr interpolationmode  none
attr source  dropPkByQueue
attr title  "packets dropped by queue, count"
scalar scenarioPRJP1.node[50].wlan[0].mgmt 	dropPkByQueue:sum(packetBytes) 	0
attr interpolationmode  none
attr source  dropPkByQueue
attr title  "packets dropped by queue, sum(packetBytes)"
scalar scenarioPRJP1.node[50].wlan[0].mac 	"number of received packets" 	213
scalar scenarioPRJP1.node[50].wlan[0].mac 	"number of collisions" 	2726
scalar scenarioPRJP1.node[50].wlan[0].mac 	"number of internal collisions" 	0
scalar scenarioPRJP1.node[50].wlan[0].mac 	"number of retry for AC 0" 	370
scalar scenarioPRJP1.node[50].wlan[0].mac 	"number of retry for AC 1" 	0
scalar scenarioPRJP1.node[50].wlan[0].mac 	"number of retry for AC 2" 	0
scalar scenarioPRJP1.node[50].wlan[0].mac 	"number of retry for AC 3" 	0
scalar scenarioPRJP1.node[50].wlan[0].mac 	"sent and received bits" 	2076032
scalar scenarioPRJP1.node[50].wlan[0].mac 	"sent packet within AC 0" 	188
scalar scenarioPRJP1.node[50].wlan[0].mac 	"sent packet within AC 1" 	1
scalar scenarioPRJP1.node[50].wlan[0].mac 	"sent packet within AC 2" 	0
scalar scenarioPRJP1.node[50].wlan[0].mac 	"sent packet within AC 3" 	0
scalar scenarioPRJP1.node[50].wlan[0].mac 	"sent in TXOP " 	0
scalar scenarioPRJP1.node[50].wlan[0].mac 	"sentWithoutRetry AC 0" 	137
scalar scenarioPRJP1.node[50].wlan[0].mac 	"sentWithoutRetry AC 1" 	1
scalar scenarioPRJP1.node[50].wlan[0].mac 	"sentWithoutRetry AC 2" 	0
scalar scenarioPRJP1.node[50].wlan[0].mac 	"sentWithoutRetry AC 3" 	0
scalar scenarioPRJP1.node[50].wlan[0].mac 	"numGivenUp AC 0" 	36
scalar scenarioPRJP1.node[50].wlan[0].mac 	"numGivenUp AC 1" 	0
scalar scenarioPRJP1.node[50].wlan[0].mac 	"numGivenUp AC 2" 	0
scalar scenarioPRJP1.node[50].wlan[0].mac 	"numGivenUp AC 3" 	0
scalar scenarioPRJP1.node[50].wlan[0].mac 	"numDropped AC 0" 	0
scalar scenarioPRJP1.node[50].wlan[0].mac 	"numDropped AC 1" 	0
scalar scenarioPRJP1.node[50].wlan[0].mac 	"numDropped AC 2" 	0
scalar scenarioPRJP1.node[50].wlan[0].mac 	"numDropped AC 3" 	0
scalar scenarioPRJP1.node[50].wlan[0].mac 	rcvdPkFromLL:count 	22895
attr interpolationmode  none
attr source  packetReceivedFromLower
attr title  "packets received from lower layer, count"
scalar scenarioPRJP1.node[50].wlan[0].mac 	rcvdPkFromLL:sum(packetBytes) 	3667706
attr interpolationmode  none
attr source  packetReceivedFromLower
attr title  "packets received from lower layer, sum(packetBytes)"
scalar scenarioPRJP1.node[50].wlan[0].mac 	sentDownPk:count 	2967
attr interpolationmode  none
attr source  packetSentToLower
attr title  "packets sent to lower layer, count"
scalar scenarioPRJP1.node[50].wlan[0].mac 	sentDownPk:sum(packetBytes) 	430546
attr interpolationmode  none
attr source  packetSentToLower
attr title  "packets sent to lower layer, sum(packetBytes)"
scalar scenarioPRJP1.node[50].wlan[0].mac 	rcvdPkFromHL:count 	2384
attr interpolationmode  none
attr source  packetReceivedFromUpper
attr title  "packets received from higher layer, count"
scalar scenarioPRJP1.node[50].wlan[0].mac 	rcvdPkFromHL:sum(packetBytes) 	275792
attr interpolationmode  none
attr source  packetReceivedFromUpper
attr title  "packets received from higher layer, sum(packetBytes)"
scalar scenarioPRJP1.node[50].wlan[0].mac 	passedUpPk:count 	14230
attr interpolationmode  none
attr source  packetSentToUpper
attr title  "packets passed to higher layer, count"
scalar scenarioPRJP1.node[50].wlan[0].mac 	passedUpPk:sum(packetBytes) 	1301100
attr interpolationmode  none
attr source  packetSentToUpper
attr title  "packets passed to higher layer, sum(packetBytes)"
statistic scenarioPRJP1.node[50].wlan[0].radio 	radioChannel:histogram
field count 1
field mean 3
field stddev -nan
field sum 3
field sqrsum 9
field min 3
field max 3
attr interpolationmode  sample-hold
attr source  radioChannelChanged
attr title  "Radio channel, histogram"
bin	-INF	0
bin	2	0
bin	3	1
bin	4	0
scalar scenarioPRJP1.node[50].wlan[0].radio 	transmissionState:count 	11868
attr interpolationmode  sample-hold
attr source  transmissionStateChanged
attr title  "Radio transmission state, count"
scalar scenarioPRJP1.node[50].wlan[0].radio 	receptionState:count 	76829
attr interpolationmode  sample-hold
attr source  receptionStateChanged
attr title  "Radio reception state, count"
scalar scenarioPRJP1.node[50].wlan[0].radio 	radioMode:count 	5936
attr interpolationmode  sample-hold
attr source  radioModeChanged
attr title  "Radio mode, count"
statistic scenarioPRJP1.node[50].wlan[0].radio 	symbolErrorRate:histogram
field count 0
field mean -nan
field stddev -nan
field sum 0
field sqrsum 0
field min -nan
field max -nan
attr source  symbolErrorRate
attr title  "Symbol error rate, histogram"
bin	-INF	0
bin	-0.5	0
bin	-0.46666666666667	0
bin	-0.43333333333333	0
bin	-0.4	0
bin	-0.36666666666667	0
bin	-0.33333333333333	0
bin	-0.3	0
bin	-0.26666666666667	0
bin	-0.23333333333333	0
bin	-0.2	0
bin	-0.16666666666667	0
bin	-0.13333333333333	0
bin	-0.1	0
bin	-0.066666666666667	0
bin	-0.033333333333333	0
bin	0	0
bin	0.033333333333333	0
bin	0.066666666666667	0
bin	0.1	0
bin	0.13333333333333	0
bin	0.16666666666667	0
bin	0.2	0
bin	0.23333333333333	0
bin	0.26666666666667	0
bin	0.3	0
bin	0.33333333333333	0
bin	0.36666666666667	0
bin	0.4	0
bin	0.43333333333333	0
bin	0.46666666666667	0
bin	0.5	0
statistic scenarioPRJP1.node[50].wlan[0].radio 	bitErrorRate:histogram
field count 0
field mean -nan
field stddev -nan
field sum 0
field sqrsum 0
field min -nan
field max -nan
attr source  bitErrorRate
attr title  "Bit error rate, histogram"
bin	-INF	0
bin	-0.5	0
bin	-0.46666666666667	0
bin	-0.43333333333333	0
bin	-0.4	0
bin	-0.36666666666667	0
bin	-0.33333333333333	0
bin	-0.3	0
bin	-0.26666666666667	0
bin	-0.23333333333333	0
bin	-0.2	0
bin	-0.16666666666667	0
bin	-0.13333333333333	0
bin	-0.1	0
bin	-0.066666666666667	0
bin	-0.033333333333333	0
bin	0	0
bin	0.033333333333333	0
bin	0.066666666666667	0
bin	0.1	0
bin	0.13333333333333	0
bin	0.16666666666667	0
bin	0.2	0
bin	0.23333333333333	0
bin	0.26666666666667	0
bin	0.3	0
bin	0.33333333333333	0
bin	0.36666666666667	0
bin	0.4	0
bin	0.43333333333333	0
bin	0.46666666666667	0
bin	0.5	0
statistic scenarioPRJP1.node[50].wlan[0].radio 	packetErrorRate:histogram
field count 22895
field mean 0.094846534332183
field stddev 0.28321305424256
field sum 2171.5114035353
field sqrsum 2042.2796938224
field min 0
field max 1
attr source  packetErrorRate
attr title  "Packet error rate, histogram"
bin	-INF	0
bin	-0.5	0
bin	-0.43333333333333	0
bin	-0.36666666666667	0
bin	-0.3	0
bin	-0.23333333333333	0
bin	-0.16666666666667	0
bin	-0.1	0
bin	-0.033333333333333	20165
bin	0.033333333333333	230
bin	0.1	125
bin	0.16666666666667	65
bin	0.23333333333333	65
bin	0.3	54
bin	0.36666666666667	36
bin	0.43333333333333	31
bin	0.5	38
bin	0.56666666666667	33
bin	0.63333333333333	40
bin	0.7	23
bin	0.76666666666667	29
bin	0.83333333333333	40
bin	0.9	55
bin	0.96666666666667	1866
bin	1.0333333333333	0
bin	1.1	0
bin	1.1666666666667	0
bin	1.2333333333333	0
bin	1.3	0
bin	1.3666666666667	0
bin	1.4333333333333	0
bin	1.5	0
statistic scenarioPRJP1.node[50].wlan[0].radio 	minSNIR:histogram
field count 22895
field mean 8752.8147172881
field stddev 129341.98395074
field sum 200395692.95231
field sqrsum 3.8475573807966e+14
field min 0.0045058114439743
field max 3012958.8765302
attr source  minSNIR
attr title  "Min SNIR, histogram"
bin	-INF	0
bin	-11024.891395651	0
bin	-9554.7607520669	0
bin	-8084.6301084824	0
bin	-6614.4994648978	0
bin	-5144.3688213133	0
bin	-3674.2381777287	0
bin	-2204.1075341442	0
bin	-733.9768905596	19489
bin	736.15375302495	1448
bin	2206.2843966095	416
bin	3676.4150401941	221
bin	5146.5456837786	165
bin	6616.6763273632	89
bin	8086.8069709477	69
bin	9556.9376145323	73
bin	11027.068258117	64
bin	12497.198901701	53
bin	13967.329545286	47
bin	15437.460188871	41
bin	16907.590832455	39
bin	18377.72147604	23
bin	19847.852119624	43
bin	21317.982763209	18
bin	22788.113406793	22
bin	24258.244050378	21
bin	25728.374693962	9
bin	27198.505337547	26
bin	28668.635981132	13
bin	30138.766624716	13
bin	31608.897268301	16
bin	33079.027911885	477
scalar scenarioPRJP1.node[50].lo0.lo 	droppedPkBitError:count 	0
attr interpolationmode  none
attr source  dropPkBitError
attr title  "packets dropped/bit error, count"
scalar scenarioPRJP1.node[50].lo0.lo 	droppedPkBitError:sum(packetBytes) 	0
attr interpolationmode  none
attr source  dropPkBitError
attr title  "packets dropped/bit error, sum(packetBytes)"
scalar scenarioPRJP1.node[50].lo0.lo 	rcvdPkFromHL:count 	0
attr interpolationmode  none
attr source  packetReceivedFromUpper
attr title  "packets received from higher layer, count"
scalar scenarioPRJP1.node[50].lo0.lo 	rcvdPkFromHL:sum(packetBytes) 	0
attr interpolationmode  none
attr source  packetReceivedFromUpper
attr title  "packets received from higher layer, sum(packetBytes)"
scalar scenarioPRJP1.node[50].lo0.lo 	passedUpPk:count 	0
attr interpolationmode  none
attr source  packetSentToUpper
attr title  "packets passed to higher layer, count"
scalar scenarioPRJP1.node[50].lo0.lo 	passedUpPk:sum(packetBytes) 	0
attr interpolationmode  none
attr source  packetSentToUpper
attr title  "packets passed to higher layer, sum(packetBytes)"
scalar scenarioPRJP1.node[91].app 	"Total sent" 	378
scalar scenarioPRJP1.node[91].app 	"Total received" 	44
scalar scenarioPRJP1.node[91].app 	"Total deleted" 	6
scalar scenarioPRJP1.node[91].app 	dropPk:count 	6
attr interpolationmode  none
attr source  dropPk
attr title  "packets dropped, count"
scalar scenarioPRJP1.node[91].app 	dropPk:sum(packetBytes) 	3072
attr interpolationmode  none
attr source  dropPk
attr title  "packets dropped, sum(packetBytes)"
scalar scenarioPRJP1.node[91].app 	outOfOrderPk:count 	0
attr interpolationmode  none
attr source  outOfOrderPk
attr title  "packets received out of order, count"
scalar scenarioPRJP1.node[91].app 	outOfOrderPk:sum(packetBytes) 	0
attr interpolationmode  none
attr source  outOfOrderPk
attr title  "packets received out of order, sum(packetBytes)"
scalar scenarioPRJP1.node[91].app 	rcvdPk:count 	44
attr interpolationmode  none
attr source  rcvdPk
attr title  "packets received, count"
scalar scenarioPRJP1.node[91].app 	rcvdPk:sum(packetBytes) 	22528
attr interpolationmode  none
attr source  rcvdPk
attr title  "packets received, sum(packetBytes)"
statistic scenarioPRJP1.node[91].app 	endToEndDelay:histogram
field count 44
field mean 0.79487625670345
field stddev 2.5858918043291
field sum 34.974555294952
field sqrsum 315.33440981167
field min 0.000954126355
field max 14.404149332335
attr interpolationmode  none
attr source  messageAge(rcvdPk)
attr title  "delay, histogram"
attr unit  s
bin	-INF	0
bin	-7.200643476635	0
bin	-6.240430462903	0
bin	-5.280217449171	0
bin	-4.320004435439	0
bin	-3.359791421707	0
bin	-2.399578407975	0
bin	-1.439365394243	0
bin	-0.479152380511	35
bin	0.481060633221	3
bin	1.441273646953	4
bin	2.401486660685	0
bin	3.361699674417	0
bin	4.321912688149	0
bin	5.282125701881	0
bin	6.242338715613	0
bin	7.202551729345	0
bin	8.162764743077	0
bin	9.122977756809	1
bin	10.083190770541	0
bin	11.043403784273	0
bin	12.003616798005	0
bin	12.963829811737	0
bin	13.924042825469	1
bin	14.884255839201	0
bin	15.844468852933	0
bin	16.804681866665	0
bin	17.764894880397	0
bin	18.725107894129	0
bin	19.685320907861	0
bin	20.645533921593	0
bin	21.605746935325	0
scalar scenarioPRJP1.node[91].app 	sentPk:count 	378
attr interpolationmode  none
attr source  sentPk
attr title  "packets sent, count"
scalar scenarioPRJP1.node[91].app 	sentPk:sum(packetBytes) 	193536
attr interpolationmode  none
attr source  sentPk
attr title  "packets sent, sum(packetBytes)"
scalar scenarioPRJP1.node[91].udp 	droppedPkBadChecksum:count 	0
attr interpolationmode  none
attr title  "packets dropped (checksum error), count"
scalar scenarioPRJP1.node[91].udp 	droppedPkWrongPort:count 	0
attr interpolationmode  none
attr title  "packets dropped (wrong port), count"
scalar scenarioPRJP1.node[91].udp 	passedUpPk:count 	50
attr interpolationmode  none
attr title  "packets passed up, count"
scalar scenarioPRJP1.node[91].udp 	rcvdPk:count 	50
attr interpolationmode  none
attr source  rcvdPk
attr title  "packets received, count"
scalar scenarioPRJP1.node[91].udp 	rcvdPk:sum(packetBytes) 	26000
attr interpolationmode  none
attr source  rcvdPk
attr title  "packets received, sum(packetBytes)"
scalar scenarioPRJP1.node[91].udp 	sentPk:count 	378
attr interpolationmode  none
attr source  sentPk
attr title  "packets sent, count"
scalar scenarioPRJP1.node[91].udp 	sentPk:sum(packetBytes) 	196560
attr interpolationmode  none
attr source  sentPk
attr title  "packets sent, sum(packetBytes)"
scalar scenarioPRJP1.node[91].networkLayer.arp 	failedARPResolution:count 	4
attr title  "ARP failed resolutions, count"
scalar scenarioPRJP1.node[91].networkLayer.arp 	completedARPResolution:count 	110
attr title  "ARP completed resolutions, count"
scalar scenarioPRJP1.node[91].networkLayer.arp 	initiatedARPResolution:count 	12
attr title  "ARP initiated resolutions, count"
scalar scenarioPRJP1.node[91].networkLayer.arp 	sentReply:count 	11
attr title  "ARP replies sent, count"
scalar scenarioPRJP1.node[91].networkLayer.arp 	sentReq:count 	25
attr title  "ARP request sent, count"
scalar scenarioPRJP1.node[91].mobility 	startTime 	9.7
scalar scenarioPRJP1.node[91].mobility 	totalTime 	149.6
scalar scenarioPRJP1.node[91].mobility 	stopTime 	159.4
scalar scenarioPRJP1.node[91].mobility 	minSpeed 	2.4754536885319e-13
scalar scenarioPRJP1.node[91].mobility 	maxSpeed 	18.780404141947
scalar scenarioPRJP1.node[91].mobility 	totalDistance 	1483.1512752103
scalar scenarioPRJP1.node[91].mobility 	totalCO2Emission 	460.93779836282
scalar scenarioPRJP1.node[91].wlan[0].mgmt 	dataQueueLen:max 	1
attr interpolationmode  sample-hold
attr title  "data queue length, max"
scalar scenarioPRJP1.node[91].wlan[0].mgmt 	dataQueueLen:timeavg 	0
attr interpolationmode  sample-hold
attr title  "data queue length, timeavg"
scalar scenarioPRJP1.node[91].wlan[0].mgmt 	dropPkByQueue:count 	0
attr interpolationmode  none
attr source  dropPkByQueue
attr title  "packets dropped by queue, count"
scalar scenarioPRJP1.node[91].wlan[0].mgmt 	dropPkByQueue:sum(packetBytes) 	0
attr interpolationmode  none
attr source  dropPkByQueue
attr title  "packets dropped by queue, sum(packetBytes)"
scalar scenarioPRJP1.node[91].wlan[0].mac 	"number of received packets" 	201
scalar scenarioPRJP1.node[91].wlan[0].mac 	"number of collisions" 	2426
scalar scenarioPRJP1.node[91].wlan[0].mac 	"number of internal collisions" 	0
scalar scenarioPRJP1.node[91].wlan[0].mac 	"number of retry for AC 0" 	232
scalar scenarioPRJP1.node[91].wlan[0].mac 	"number of retry for AC 1" 	0
scalar scenarioPRJP1.node[91].wlan[0].mac 	"number of retry for AC 2" 	0
scalar scenarioPRJP1.node[91].wlan[0].mac 	"number of retry for AC 3" 	0
scalar scenarioPRJP1.node[91].wlan[0].mac 	"sent and received bits" 	1852864
scalar scenarioPRJP1.node[91].wlan[0].mac 	"sent packet within AC 0" 	163
scalar scenarioPRJP1.node[91].wlan[0].mac 	"sent packet within AC 1" 	0
scalar scenarioPRJP1.node[91].wlan[0].mac 	"sent packet within AC 2" 	0
scalar scenarioPRJP1.node[91].wlan[0].mac 	"sent packet within AC 3" 	0
scalar scenarioPRJP1.node[91].wlan[0].mac 	"sent in TXOP " 	0
scalar scenarioPRJP1.node[91].wlan[0].mac 	"sentWithoutRetry AC 0" 	119
scalar scenarioPRJP1.node[91].wlan[0].mac 	"sentWithoutRetry AC 1" 	0
scalar scenarioPRJP1.node[91].wlan[0].mac 	"sentWithoutRetry AC 2" 	0
scalar scenarioPRJP1.node[91].wlan[0].mac 	"sentWithoutRetry AC 3" 	0
scalar scenarioPRJP1.node[91].wlan[0].mac 	"numGivenUp AC 0" 	19
scalar scenarioPRJP1.node[91].wlan[0].mac 	"numGivenUp AC 1" 	0
scalar scenarioPRJP1.node[91].wlan[0].mac 	"numGivenUp AC 2" 	0
scalar scenarioPRJP1.node[91].wlan[0].mac 	"numGivenUp AC 3" 	0
scalar scenarioPRJP1.node[91].wlan[0].mac 	"numDropped AC 0" 	0
scalar scenarioPRJP1.node[91].wlan[0].mac 	"numDropped AC 1" 	0
scalar scenarioPRJP1.node[91].wlan[0].mac 	"numDropped AC 2" 	0
scalar scenarioPRJP1.node[91].wlan[0].mac 	"numDropped AC 3" 	0
scalar scenarioPRJP1.node[91].wlan[0].mac 	rcvdPkFromLL:count 	16777
attr interpolationmode  none
attr source  packetReceivedFromLower
attr title  "packets received from lower layer, count"
scalar scenarioPRJP1.node[91].wlan[0].mac 	rcvdPkFromLL:sum(packetBytes) 	2607220
attr interpolationmode  none
attr source  packetReceivedFromLower
attr title  "packets received from lower layer, sum(packetBytes)"
scalar scenarioPRJP1.node[91].wlan[0].mac 	sentDownPk:count 	2545
attr interpolationmode  none
attr source  packetSentToLower
attr title  "packets sent to lower layer, count"
scalar scenarioPRJP1.node[91].wlan[0].mac 	sentDownPk:sum(packetBytes) 	349530
attr interpolationmode  none
attr source  packetSentToLower
attr title  "packets sent to lower layer, sum(packetBytes)"
scalar scenarioPRJP1.node[91].wlan[0].mac 	rcvdPkFromHL:count 	2112
attr interpolationmode  none
attr source  packetReceivedFromUpper
attr title  "packets received from higher layer, count"
scalar scenarioPRJP1.node[91].wlan[0].mac 	rcvdPkFromHL:sum(packetBytes) 	241568
attr interpolationmode  none
attr source  packetReceivedFromUpper
attr title  "packets received from higher layer, sum(packetBytes)"
scalar scenarioPRJP1.node[91].wlan[0].mac 	passedUpPk:count 	10710
attr interpolationmode  none
attr source  packetSentToUpper
attr title  "packets passed to higher layer, count"
scalar scenarioPRJP1.node[91].wlan[0].mac 	passedUpPk:sum(packetBytes) 	994132
attr interpolationmode  none
attr source  packetSentToUpper
attr title  "packets passed to higher layer, sum(packetBytes)"
statistic scenarioPRJP1.node[91].wlan[0].radio 	radioChannel:histogram
field count 1
field mean 3
field stddev -nan
field sum 3
field sqrsum 9
field min 3
field max 3
attr interpolationmode  sample-hold
attr source  radioChannelChanged
attr title  "Radio channel, histogram"
bin	-INF	0
bin	2	0
bin	3	1
bin	4	0
scalar scenarioPRJP1.node[91].wlan[0].radio 	transmissionState:count 	10180
attr interpolationmode  sample-hold
attr source  transmissionStateChanged
attr title  "Radio transmission state, count"
scalar scenarioPRJP1.node[91].wlan[0].radio 	receptionState:count 	69594
attr interpolationmode  sample-hold
attr source  receptionStateChanged
attr title  "Radio reception state, count"
scalar scenarioPRJP1.node[91].wlan[0].radio 	radioMode:count 	5092
attr interpolationmode  sample-hold
attr source  radioModeChanged
attr title  "Radio mode, count"
statistic scenarioPRJP1.node[91].wlan[0].radio 	symbolErrorRate:histogram
field count 0
field mean -nan
field stddev -nan
field sum 0
field sqrsum 0
field min -nan
field max -nan
attr source  symbolErrorRate
attr title  "Symbol error rate, histogram"
bin	-INF	0
bin	-0.5	0
bin	-0.46666666666667	0
bin	-0.43333333333333	0
bin	-0.4	0
bin	-0.36666666666667	0
bin	-0.33333333333333	0
bin	-0.3	0
bin	-0.26666666666667	0
bin	-0.23333333333333	0
bin	-0.2	0
bin	-0.16666666666667	0
bin	-0.13333333333333	0
bin	-0.1	0
bin	-0.066666666666667	0
bin	-0.033333333333333	0
bin	0	0
bin	0.033333333333333	0
bin	0.066666666666667	0
bin	0.1	0
bin	0.13333333333333	0
bin	0.16666666666667	0
bin	0.2	0
bin	0.23333333333333	0
bin	0.26666666666667	0
bin	0.3	0
bin	0.33333333333333	0
bin	0.36666666666667	0
bin	0.4	0
bin	0.43333333333333	0
bin	0.46666666666667	0
bin	0.5	0
statistic scenarioPRJP1.node[91].wlan[0].radio 	bitErrorRate:histogram
field count 0
field mean -nan
field stddev -nan
field sum 0
field sqrsum 0
field min -nan
field max -nan
attr source  bitErrorRate
attr title  "Bit error rate, histogram"
bin	-INF	0
bin	-0.5	0
bin	-0.46666666666667	0
bin	-0.43333333333333	0
bin	-0.4	0
bin	-0.36666666666667	0
bin	-0.33333333333333	0
bin	-0.3	0
bin	-0.26666666666667	0
bin	-0.23333333333333	0
bin	-0.2	0
bin	-0.16666666666667	0
bin	-0.13333333333333	0
bin	-0.1	0
bin	-0.066666666666667	0
bin	-0.033333333333333	0
bin	0	0
bin	0.033333333333333	0
bin	0.066666666666667	0
bin	0.1	0
bin	0.13333333333333	0
bin	0.16666666666667	0
bin	0.2	0
bin	0.23333333333333	0
bin	0.26666666666667	0
bin	0.3	0
bin	0.33333333333333	0
bin	0.36666666666667	0
bin	0.4	0
bin	0.43333333333333	0
bin	0.46666666666667	0
bin	0.5	0
statistic scenarioPRJP1.node[91].wlan[0].radio 	packetErrorRate:histogram
field count 16777
field mean 0.1141737057398
field stddev 0.30761494279247
field sum 1915.4922611966
field sqrsum 1806.1606137949
field min 0
field max 1
attr source  packetErrorRate
attr title  "Packet error rate, histogram"
bin	-INF	0
bin	-0.49999999999598	0
bin	-0.43333333332985	0
bin	-0.36666666666372	0
bin	-0.29999999999759	0
bin	-0.23333333333146	0
bin	-0.16666666666532	0
bin	-0.099999999999195	0
bin	-0.033333333333065	14394
bin	0.033333333333065	199
bin	0.099999999999195	96
bin	0.16666666666533	51
bin	0.23333333333146	53
bin	0.29999999999759	47
bin	0.36666666666372	35
bin	0.43333333332985	22
bin	0.49999999999598	33
bin	0.56666666666211	28
bin	0.63333333332824	31
bin	0.69999999999437	26
bin	0.7666666666605	33
bin	0.83333333332663	28
bin	0.89999999999276	44
bin	0.96666666665889	1657
bin	1.033333333325	0
bin	1.0999999999911	0
bin	1.1666666666573	0
bin	1.2333333333234	0
bin	1.2999999999895	0
bin	1.3666666666557	0
bin	1.4333333333218	0
bin	1.4999999999879	0
statistic scenarioPRJP1.node[91].wlan[0].radio 	minSNIR:histogram
field count 16777
field mean 30698.171953747
field stddev 277460.26183482
field sum 515023230.86801
field sqrsum 1.3072971588529e+15
field min 0.00028764568795583
field max 3012958.8769377
attr source  minSNIR
attr title  "Min SNIR, histogram"
bin	-INF	0
bin	-308.19741960759	0
bin	-266.90977405166	0
bin	-225.62212849574	0
bin	-184.33448293981	0
bin	-143.04683738388	0
bin	-101.75919182796	0
bin	-60.471546272029	0
bin	-19.183900716102	9129
bin	22.103744839825	1852
bin	63.391390395752	590
bin	104.67903595168	279
bin	145.96668150761	177
bin	187.25432706353	135
bin	228.54197261946	109
bin	269.82961817539	84
bin	311.11726373131	238
bin	352.40490928724	230
bin	393.69255484317	181
bin	434.98020039909	138
bin	476.26784595502	121
bin	517.55549151095	147
bin	558.84313706688	73
bin	600.1307826228	63
bin	641.41842817873	57
bin	682.70607373466	58
bin	723.99371929058	38
bin	765.28136484651	53
bin	806.56901040244	65
bin	847.85665595836	35
bin	889.14430151429	42
bin	930.43194707022	2883
scalar scenarioPRJP1.node[91].lo0.lo 	droppedPkBitError:count 	0
attr interpolationmode  none
attr source  dropPkBitError
attr title  "packets dropped/bit error, count"
scalar scenarioPRJP1.node[91].lo0.lo 	droppedPkBitError:sum(packetBytes) 	0
attr interpolationmode  none
attr source  dropPkBitError
attr title  "packets dropped/bit error, sum(packetBytes)"
scalar scenarioPRJP1.node[91].lo0.lo 	rcvdPkFromHL:count 	0
attr interpolationmode  none
attr source  packetReceivedFromUpper
attr title  "packets received from higher layer, count"
scalar scenarioPRJP1.node[91].lo0.lo 	rcvdPkFromHL:sum(packetBytes) 	0
attr interpolationmode  none
attr source  packetReceivedFromUpper
attr title  "packets received from higher layer, sum(packetBytes)"
scalar scenarioPRJP1.node[91].lo0.lo 	passedUpPk:count 	0
attr interpolationmode  none
attr source  packetSentToUpper
attr title  "packets passed to higher layer, count"
scalar scenarioPRJP1.node[91].lo0.lo 	passedUpPk:sum(packetBytes) 	0
attr interpolationmode  none
attr source  packetSentToUpper
attr title  "packets passed to higher layer, sum(packetBytes)"
scalar scenarioPRJP1.node[56].app 	"Total sent" 	375
scalar scenarioPRJP1.node[56].app 	"Total received" 	42
scalar scenarioPRJP1.node[56].app 	"Total deleted" 	3
scalar scenarioPRJP1.node[56].app 	dropPk:count 	3
attr interpolationmode  none
attr source  dropPk
attr title  "packets dropped, count"
scalar scenarioPRJP1.node[56].app 	dropPk:sum(packetBytes) 	1536
attr interpolationmode  none
attr source  dropPk
attr title  "packets dropped, sum(packetBytes)"
scalar scenarioPRJP1.node[56].app 	outOfOrderPk:count 	0
attr interpolationmode  none
attr source  outOfOrderPk
attr title  "packets received out of order, count"
scalar scenarioPRJP1.node[56].app 	outOfOrderPk:sum(packetBytes) 	0
attr interpolationmode  none
attr source  outOfOrderPk
attr title  "packets received out of order, sum(packetBytes)"
scalar scenarioPRJP1.node[56].app 	rcvdPk:count 	42
attr interpolationmode  none
attr source  rcvdPk
attr title  "packets received, count"
scalar scenarioPRJP1.node[56].app 	rcvdPk:sum(packetBytes) 	21504
attr interpolationmode  none
attr source  rcvdPk
attr title  "packets received, sum(packetBytes)"
statistic scenarioPRJP1.node[56].app 	endToEndDelay:histogram
field count 42
field mean 1.3011482076875
field stddev 3.6236720882398
field sum 54.648224722877
field sqrsum 609.4764151781
field min 0.000891050803
field max 19.09812348793
attr interpolationmode  none
attr source  messageAge(rcvdPk)
attr title  "delay, histogram"
attr unit  s
bin	-INF	0
bin	-9.5477251677605	0
bin	-8.2745763386187	0
bin	-7.0014275094769	0
bin	-5.7282786803351	0
bin	-4.4551298511933	0
bin	-3.1819810220515	0
bin	-1.9088321929097	0
bin	-0.6356833637679	32
bin	0.6374654653739	5
bin	1.9106142945157	0
bin	3.1837631236575	1
bin	4.4569119527993	0
bin	5.7300607819411	0
bin	7.0032096110829	0
bin	8.2763584402247	3
bin	9.5495072693665	0
bin	10.822656098508	0
bin	12.09580492765	0
bin	13.368953756792	0
bin	14.642102585934	0
bin	15.915251415075	0
bin	17.188400244217	0
bin	18.461549073359	1
bin	19.734697902501	0
bin	21.007846731643	0
bin	22.280995560784	0
bin	23.554144389926	0
bin	24.827293219068	0
bin	26.10044204821	0
bin	27.373590877352	0
bin	28.646739706493	0
scalar scenarioPRJP1.node[56].app 	sentPk:count 	375
attr interpolationmode  none
attr source  sentPk
attr title  "packets sent, count"
scalar scenarioPRJP1.node[56].app 	sentPk:sum(packetBytes) 	192000
attr interpolationmode  none
attr source  sentPk
attr title  "packets sent, sum(packetBytes)"
scalar scenarioPRJP1.node[56].udp 	droppedPkBadChecksum:count 	0
attr interpolationmode  none
attr title  "packets dropped (checksum error), count"
scalar scenarioPRJP1.node[56].udp 	droppedPkWrongPort:count 	0
attr interpolationmode  none
attr title  "packets dropped (wrong port), count"
scalar scenarioPRJP1.node[56].udp 	passedUpPk:count 	45
attr interpolationmode  none
attr title  "packets passed up, count"
scalar scenarioPRJP1.node[56].udp 	rcvdPk:count 	45
attr interpolationmode  none
attr source  rcvdPk
attr title  "packets received, count"
scalar scenarioPRJP1.node[56].udp 	rcvdPk:sum(packetBytes) 	23400
attr interpolationmode  none
attr source  rcvdPk
attr title  "packets received, sum(packetBytes)"
scalar scenarioPRJP1.node[56].udp 	sentPk:count 	375
attr interpolationmode  none
attr source  sentPk
attr title  "packets sent, count"
scalar scenarioPRJP1.node[56].udp 	sentPk:sum(packetBytes) 	195000
attr interpolationmode  none
attr source  sentPk
attr title  "packets sent, sum(packetBytes)"
scalar scenarioPRJP1.node[56].networkLayer.arp 	failedARPResolution:count 	0
attr title  "ARP failed resolutions, count"
scalar scenarioPRJP1.node[56].networkLayer.arp 	completedARPResolution:count 	191
attr title  "ARP completed resolutions, count"
scalar scenarioPRJP1.node[56].networkLayer.arp 	initiatedARPResolution:count 	13
attr title  "ARP initiated resolutions, count"
scalar scenarioPRJP1.node[56].networkLayer.arp 	sentReply:count 	17
attr title  "ARP replies sent, count"
scalar scenarioPRJP1.node[56].networkLayer.arp 	sentReq:count 	17
attr title  "ARP request sent, count"
scalar scenarioPRJP1.node[56].mobility 	startTime 	4.9
scalar scenarioPRJP1.node[56].mobility 	totalTime 	155.5
scalar scenarioPRJP1.node[56].mobility 	stopTime 	160.5
scalar scenarioPRJP1.node[56].mobility 	minSpeed 	2.4758422458723e-13
scalar scenarioPRJP1.node[56].mobility 	maxSpeed 	20.019532357198
scalar scenarioPRJP1.node[56].mobility 	totalDistance 	1449.1746642908
scalar scenarioPRJP1.node[56].mobility 	totalCO2Emission 	436.47931232683
scalar scenarioPRJP1.node[56].wlan[0].mgmt 	dataQueueLen:max 	1
attr interpolationmode  sample-hold
attr title  "data queue length, max"
scalar scenarioPRJP1.node[56].wlan[0].mgmt 	dataQueueLen:timeavg 	0
attr interpolationmode  sample-hold
attr title  "data queue length, timeavg"
scalar scenarioPRJP1.node[56].wlan[0].mgmt 	dropPkByQueue:count 	0
attr interpolationmode  none
attr source  dropPkByQueue
attr title  "packets dropped by queue, count"
scalar scenarioPRJP1.node[56].wlan[0].mgmt 	dropPkByQueue:sum(packetBytes) 	0
attr interpolationmode  none
attr source  dropPkByQueue
attr title  "packets dropped by queue, sum(packetBytes)"
scalar scenarioPRJP1.node[56].wlan[0].mac 	"number of received packets" 	185
scalar scenarioPRJP1.node[56].wlan[0].mac 	"number of collisions" 	3684
scalar scenarioPRJP1.node[56].wlan[0].mac 	"number of internal collisions" 	0
scalar scenarioPRJP1.node[56].wlan[0].mac 	"number of retry for AC 0" 	305
scalar scenarioPRJP1.node[56].wlan[0].mac 	"number of retry for AC 1" 	0
scalar scenarioPRJP1.node[56].wlan[0].mac 	"number of retry for AC 2" 	0
scalar scenarioPRJP1.node[56].wlan[0].mac 	"number of retry for AC 3" 	0
scalar scenarioPRJP1.node[56].wlan[0].mac 	"sent and received bits" 	1948928
scalar scenarioPRJP1.node[56].wlan[0].mac 	"sent packet within AC 0" 	170
scalar scenarioPRJP1.node[56].wlan[0].mac 	"sent packet within AC 1" 	0
scalar scenarioPRJP1.node[56].wlan[0].mac 	"sent packet within AC 2" 	0
scalar scenarioPRJP1.node[56].wlan[0].mac 	"sent packet within AC 3" 	0
scalar scenarioPRJP1.node[56].wlan[0].mac 	"sent in TXOP " 	0
scalar scenarioPRJP1.node[56].wlan[0].mac 	"sentWithoutRetry AC 0" 	128
scalar scenarioPRJP1.node[56].wlan[0].mac 	"sentWithoutRetry AC 1" 	0
scalar scenarioPRJP1.node[56].wlan[0].mac 	"sentWithoutRetry AC 2" 	0
scalar scenarioPRJP1.node[56].wlan[0].mac 	"sentWithoutRetry AC 3" 	0
scalar scenarioPRJP1.node[56].wlan[0].mac 	"numGivenUp AC 0" 	29
scalar scenarioPRJP1.node[56].wlan[0].mac 	"numGivenUp AC 1" 	0
scalar scenarioPRJP1.node[56].wlan[0].mac 	"numGivenUp AC 2" 	0
scalar scenarioPRJP1.node[56].wlan[0].mac 	"numGivenUp AC 3" 	0
scalar scenarioPRJP1.node[56].wlan[0].mac 	"numDropped AC 0" 	0
scalar scenarioPRJP1.node[56].wlan[0].mac 	"numDropped AC 1" 	0
scalar scenarioPRJP1.node[56].wlan[0].mac 	"numDropped AC 2" 	0
scalar scenarioPRJP1.node[56].wlan[0].mac 	"numDropped AC 3" 	0
scalar scenarioPRJP1.node[56].wlan[0].mac 	rcvdPkFromLL:count 	26738
attr interpolationmode  none
attr source  packetReceivedFromLower
attr title  "packets received from lower layer, count"
scalar scenarioPRJP1.node[56].wlan[0].mac 	rcvdPkFromLL:sum(packetBytes) 	4177060
attr interpolationmode  none
attr source  packetReceivedFromLower
attr title  "packets received from lower layer, sum(packetBytes)"
scalar scenarioPRJP1.node[56].wlan[0].mac 	sentDownPk:count 	2785
attr interpolationmode  none
attr source  packetSentToLower
attr title  "packets sent to lower layer, count"
scalar scenarioPRJP1.node[56].wlan[0].mac 	sentDownPk:sum(packetBytes) 	389734
attr interpolationmode  none
attr source  packetSentToLower
attr title  "packets sent to lower layer, sum(packetBytes)"
scalar scenarioPRJP1.node[56].wlan[0].mac 	rcvdPkFromHL:count 	2295
attr interpolationmode  none
attr source  packetReceivedFromUpper
attr title  "packets received from higher layer, count"
scalar scenarioPRJP1.node[56].wlan[0].mac 	rcvdPkFromHL:sum(packetBytes) 	258824
attr interpolationmode  none
attr source  packetReceivedFromUpper
attr title  "packets received from higher layer, sum(packetBytes)"
scalar scenarioPRJP1.node[56].wlan[0].mac 	passedUpPk:count 	16539
attr interpolationmode  none
attr source  packetSentToUpper
attr title  "packets passed to higher layer, count"
scalar scenarioPRJP1.node[56].wlan[0].mac 	passedUpPk:sum(packetBytes) 	1504320
attr interpolationmode  none
attr source  packetSentToUpper
attr title  "packets passed to higher layer, sum(packetBytes)"
statistic scenarioPRJP1.node[56].wlan[0].radio 	radioChannel:histogram
field count 1
field mean 3
field stddev -nan
field sum 3
field sqrsum 9
field min 3
field max 3
attr interpolationmode  sample-hold
attr source  radioChannelChanged
attr title  "Radio channel, histogram"
bin	-INF	0
bin	2	0
bin	3	1
bin	4	0
scalar scenarioPRJP1.node[56].wlan[0].radio 	transmissionState:count 	11140
attr interpolationmode  sample-hold
attr source  transmissionStateChanged
attr title  "Radio transmission state, count"
scalar scenarioPRJP1.node[56].wlan[0].radio 	receptionState:count 	91784
attr interpolationmode  sample-hold
attr source  receptionStateChanged
attr title  "Radio reception state, count"
scalar scenarioPRJP1.node[56].wlan[0].radio 	radioMode:count 	5572
attr interpolationmode  sample-hold
attr source  radioModeChanged
attr title  "Radio mode, count"
statistic scenarioPRJP1.node[56].wlan[0].radio 	symbolErrorRate:histogram
field count 0
field mean -nan
field stddev -nan
field sum 0
field sqrsum 0
field min -nan
field max -nan
attr source  symbolErrorRate
attr title  "Symbol error rate, histogram"
bin	-INF	0
bin	-0.5	0
bin	-0.46666666666667	0
bin	-0.43333333333333	0
bin	-0.4	0
bin	-0.36666666666667	0
bin	-0.33333333333333	0
bin	-0.3	0
bin	-0.26666666666667	0
bin	-0.23333333333333	0
bin	-0.2	0
bin	-0.16666666666667	0
bin	-0.13333333333333	0
bin	-0.1	0
bin	-0.066666666666667	0
bin	-0.033333333333333	0
bin	0	0
bin	0.033333333333333	0
bin	0.066666666666667	0
bin	0.1	0
bin	0.13333333333333	0
bin	0.16666666666667	0
bin	0.2	0
bin	0.23333333333333	0
bin	0.26666666666667	0
bin	0.3	0
bin	0.33333333333333	0
bin	0.36666666666667	0
bin	0.4	0
bin	0.43333333333333	0
bin	0.46666666666667	0
bin	0.5	0
statistic scenarioPRJP1.node[56].wlan[0].radio 	bitErrorRate:histogram
field count 0
field mean -nan
field stddev -nan
field sum 0
field sqrsum 0
field min -nan
field max -nan
attr source  bitErrorRate
attr title  "Bit error rate, histogram"
bin	-INF	0
bin	-0.5	0
bin	-0.46666666666667	0
bin	-0.43333333333333	0
bin	-0.4	0
bin	-0.36666666666667	0
bin	-0.33333333333333	0
bin	-0.3	0
bin	-0.26666666666667	0
bin	-0.23333333333333	0
bin	-0.2	0
bin	-0.16666666666667	0
bin	-0.13333333333333	0
bin	-0.1	0
bin	-0.066666666666667	0
bin	-0.033333333333333	0
bin	0	0
bin	0.033333333333333	0
bin	0.066666666666667	0
bin	0.1	0
bin	0.13333333333333	0
bin	0.16666666666667	0
bin	0.2	0
bin	0.23333333333333	0
bin	0.26666666666667	0
bin	0.3	0
bin	0.33333333333333	0
bin	0.36666666666667	0
bin	0.4	0
bin	0.43333333333333	0
bin	0.46666666666667	0
bin	0.5	0
statistic scenarioPRJP1.node[56].wlan[0].radio 	packetErrorRate:histogram
field count 26738
field mean 0.11037237851755
field stddev 0.30419637712821
field sum 2951.1366568024
field sqrsum 2799.843920675
field min 0
field max 1
attr source  packetErrorRate
attr title  "Packet error rate, histogram"
bin	-INF	0
bin	-0.5	0
bin	-0.43333333333333	0
bin	-0.36666666666667	0
bin	-0.3	0
bin	-0.23333333333333	0
bin	-0.16666666666667	0
bin	-0.1	0
bin	-0.033333333333333	23155
bin	0.033333333333333	264
bin	0.1	115
bin	0.16666666666667	91
bin	0.23333333333333	75
bin	0.3	48
bin	0.36666666666667	45
bin	0.43333333333333	58
bin	0.5	35
bin	0.56666666666667	31
bin	0.63333333333333	37
bin	0.7	39
bin	0.76666666666667	50
bin	0.83333333333333	42
bin	0.9	78
bin	0.96666666666667	2575
bin	1.0333333333333	0
bin	1.1	0
bin	1.1666666666667	0
bin	1.2333333333333	0
bin	1.3	0
bin	1.3666666666667	0
bin	1.4333333333333	0
bin	1.5	0
statistic scenarioPRJP1.node[56].wlan[0].radio 	minSNIR:histogram
field count 26738
field mean 16286.15686565
field stddev 138208.68612001
field sum 435459262.27375
field sqrsum 5.1781253110578e+14
field min 0.00048284515642408
field max 3012958.8769377
attr source  minSNIR
attr title  "Min SNIR, histogram"
bin	-INF	0
bin	-1813.2650522351	0
bin	-1571.4893670017	0
bin	-1329.7136817683	0
bin	-1087.937996535	0
bin	-846.16231130159	0
bin	-604.38662606822	0
bin	-362.61094083485	0
bin	-120.83525560149	15448
bin	120.94042963188	2615
bin	362.71611486525	1771
bin	604.49180009862	722
bin	846.26748533198	433
bin	1088.0431705654	349
bin	1329.8188557987	268
bin	1571.5945410321	263
bin	1813.3702262655	296
bin	2055.1459114988	285
bin	2296.9215967322	267
bin	2538.6972819656	192
bin	2780.4729671989	200
bin	3022.2486524323	151
bin	3264.0243376657	137
bin	3505.800022899	107
bin	3747.5757081324	77
bin	3989.3513933658	90
bin	4231.1270785991	88
bin	4472.9027638325	52
bin	4714.6784490659	39
bin	4956.4541342992	52
bin	5198.2298195326	57
bin	5440.005504766	2779
scalar scenarioPRJP1.node[56].lo0.lo 	droppedPkBitError:count 	0
attr interpolationmode  none
attr source  dropPkBitError
attr title  "packets dropped/bit error, count"
scalar scenarioPRJP1.node[56].lo0.lo 	droppedPkBitError:sum(packetBytes) 	0
attr interpolationmode  none
attr source  dropPkBitError
attr title  "packets dropped/bit error, sum(packetBytes)"
scalar scenarioPRJP1.node[56].lo0.lo 	rcvdPkFromHL:count 	0
attr interpolationmode  none
attr source  packetReceivedFromUpper
attr title  "packets received from higher layer, count"
scalar scenarioPRJP1.node[56].lo0.lo 	rcvdPkFromHL:sum(packetBytes) 	0
attr interpolationmode  none
attr source  packetReceivedFromUpper
attr title  "packets received from higher layer, sum(packetBytes)"
scalar scenarioPRJP1.node[56].lo0.lo 	passedUpPk:count 	0
attr interpolationmode  none
attr source  packetSentToUpper
attr title  "packets passed to higher layer, count"
scalar scenarioPRJP1.node[56].lo0.lo 	passedUpPk:sum(packetBytes) 	0
attr interpolationmode  none
attr source  packetSentToUpper
attr title  "packets passed to higher layer, sum(packetBytes)"
scalar scenarioPRJP1.node[63].app 	"Total sent" 	381
scalar scenarioPRJP1.node[63].app 	"Total received" 	69
scalar scenarioPRJP1.node[63].app 	"Total deleted" 	10
scalar scenarioPRJP1.node[63].app 	dropPk:count 	10
attr interpolationmode  none
attr source  dropPk
attr title  "packets dropped, count"
scalar scenarioPRJP1.node[63].app 	dropPk:sum(packetBytes) 	5120
attr interpolationmode  none
attr source  dropPk
attr title  "packets dropped, sum(packetBytes)"
scalar scenarioPRJP1.node[63].app 	outOfOrderPk:count 	1
attr interpolationmode  none
attr source  outOfOrderPk
attr title  "packets received out of order, count"
scalar scenarioPRJP1.node[63].app 	outOfOrderPk:sum(packetBytes) 	512
attr interpolationmode  none
attr source  outOfOrderPk
attr title  "packets received out of order, sum(packetBytes)"
scalar scenarioPRJP1.node[63].app 	rcvdPk:count 	69
attr interpolationmode  none
attr source  rcvdPk
attr title  "packets received, count"
scalar scenarioPRJP1.node[63].app 	rcvdPk:sum(packetBytes) 	35328
attr interpolationmode  none
attr source  rcvdPk
attr title  "packets received, sum(packetBytes)"
statistic scenarioPRJP1.node[63].app 	endToEndDelay:histogram
field count 69
field mean 1.1449095724038
field stddev 3.7166488569755
field sum 78.998760495864
field sqrsum 1029.7629904716
field min 0.00089137644
field max 19.58307487401
attr interpolationmode  none
attr source  messageAge(rcvdPk)
attr title  "delay, histogram"
attr unit  s
bin	-INF	0
bin	-9.790200372345	0
bin	-8.484721472507	0
bin	-7.179242572669	0
bin	-5.873763672831	0
bin	-4.568284772993	0
bin	-3.262805873155	0
bin	-1.957326973317	0
bin	-0.651848073479	58
bin	0.653630826359	5
bin	1.959109726197	0
bin	3.264588626035	0
bin	4.570067525873	1
bin	5.875546425711	1
bin	7.181025325549	0
bin	8.486504225387	0
bin	9.791983125225	1
bin	11.097462025063	0
bin	12.402940924901	0
bin	13.708419824739	1
bin	15.013898724577	1
bin	16.319377624415	0
bin	17.624856524253	0
bin	18.930335424091	1
bin	20.235814323929	0
bin	21.541293223767	0
bin	22.846772123605	0
bin	24.152251023443	0
bin	25.457729923281	0
bin	26.763208823119	0
bin	28.068687722957	0
bin	29.374166622795	0
scalar scenarioPRJP1.node[63].app 	sentPk:count 	381
attr interpolationmode  none
attr source  sentPk
attr title  "packets sent, count"
scalar scenarioPRJP1.node[63].app 	sentPk:sum(packetBytes) 	195072
attr interpolationmode  none
attr source  sentPk
attr title  "packets sent, sum(packetBytes)"
scalar scenarioPRJP1.node[63].udp 	droppedPkBadChecksum:count 	0
attr interpolationmode  none
attr title  "packets dropped (checksum error), count"
scalar scenarioPRJP1.node[63].udp 	droppedPkWrongPort:count 	0
attr interpolationmode  none
attr title  "packets dropped (wrong port), count"
scalar scenarioPRJP1.node[63].udp 	passedUpPk:count 	80
attr interpolationmode  none
attr title  "packets passed up, count"
scalar scenarioPRJP1.node[63].udp 	rcvdPk:count 	80
attr interpolationmode  none
attr source  rcvdPk
attr title  "packets received, count"
scalar scenarioPRJP1.node[63].udp 	rcvdPk:sum(packetBytes) 	41600
attr interpolationmode  none
attr source  rcvdPk
attr title  "packets received, sum(packetBytes)"
scalar scenarioPRJP1.node[63].udp 	sentPk:count 	381
attr interpolationmode  none
attr source  sentPk
attr title  "packets sent, count"
scalar scenarioPRJP1.node[63].udp 	sentPk:sum(packetBytes) 	198120
attr interpolationmode  none
attr source  sentPk
attr title  "packets sent, sum(packetBytes)"
scalar scenarioPRJP1.node[63].networkLayer.arp 	failedARPResolution:count 	4
attr title  "ARP failed resolutions, count"
scalar scenarioPRJP1.node[63].networkLayer.arp 	completedARPResolution:count 	166
attr title  "ARP completed resolutions, count"
scalar scenarioPRJP1.node[63].networkLayer.arp 	initiatedARPResolution:count 	19
attr title  "ARP initiated resolutions, count"
scalar scenarioPRJP1.node[63].networkLayer.arp 	sentReply:count 	14
attr title  "ARP replies sent, count"
scalar scenarioPRJP1.node[63].networkLayer.arp 	sentReq:count 	35
attr title  "ARP request sent, count"
scalar scenarioPRJP1.node[63].mobility 	startTime 	7.3
scalar scenarioPRJP1.node[63].mobility 	totalTime 	155.9
scalar scenarioPRJP1.node[63].mobility 	stopTime 	163.3
scalar scenarioPRJP1.node[63].mobility 	minSpeed 	2.4754815565613e-13
scalar scenarioPRJP1.node[63].mobility 	maxSpeed 	15.335836650274
scalar scenarioPRJP1.node[63].mobility 	totalDistance 	1484.0899372678
scalar scenarioPRJP1.node[63].mobility 	totalCO2Emission 	407.89937380827
scalar scenarioPRJP1.node[63].wlan[0].mgmt 	dataQueueLen:max 	2
attr interpolationmode  sample-hold
attr title  "data queue length, max"
scalar scenarioPRJP1.node[63].wlan[0].mgmt 	dataQueueLen:timeavg 	0
attr interpolationmode  sample-hold
attr title  "data queue length, timeavg"
scalar scenarioPRJP1.node[63].wlan[0].mgmt 	dropPkByQueue:count 	0
attr interpolationmode  none
attr source  dropPkByQueue
attr title  "packets dropped by queue, count"
scalar scenarioPRJP1.node[63].wlan[0].mgmt 	dropPkByQueue:sum(packetBytes) 	0
attr interpolationmode  none
attr source  dropPkByQueue
attr title  "packets dropped by queue, sum(packetBytes)"
scalar scenarioPRJP1.node[63].wlan[0].mac 	"number of received packets" 	248
scalar scenarioPRJP1.node[63].wlan[0].mac 	"number of collisions" 	3040
scalar scenarioPRJP1.node[63].wlan[0].mac 	"number of internal collisions" 	0
scalar scenarioPRJP1.node[63].wlan[0].mac 	"number of retry for AC 0" 	330
scalar scenarioPRJP1.node[63].wlan[0].mac 	"number of retry for AC 1" 	0
scalar scenarioPRJP1.node[63].wlan[0].mac 	"number of retry for AC 2" 	0
scalar scenarioPRJP1.node[63].wlan[0].mac 	"number of retry for AC 3" 	0
scalar scenarioPRJP1.node[63].wlan[0].mac 	"sent and received bits" 	2033472
scalar scenarioPRJP1.node[63].wlan[0].mac 	"sent packet within AC 0" 	167
scalar scenarioPRJP1.node[63].wlan[0].mac 	"sent packet within AC 1" 	0
scalar scenarioPRJP1.node[63].wlan[0].mac 	"sent packet within AC 2" 	0
scalar scenarioPRJP1.node[63].wlan[0].mac 	"sent packet within AC 3" 	0
scalar scenarioPRJP1.node[63].wlan[0].mac 	"sent in TXOP " 	0
scalar scenarioPRJP1.node[63].wlan[0].mac 	"sentWithoutRetry AC 0" 	115
scalar scenarioPRJP1.node[63].wlan[0].mac 	"sentWithoutRetry AC 1" 	0
scalar scenarioPRJP1.node[63].wlan[0].mac 	"sentWithoutRetry AC 2" 	0
scalar scenarioPRJP1.node[63].wlan[0].mac 	"sentWithoutRetry AC 3" 	0
scalar scenarioPRJP1.node[63].wlan[0].mac 	"numGivenUp AC 0" 	29
scalar scenarioPRJP1.node[63].wlan[0].mac 	"numGivenUp AC 1" 	0
scalar scenarioPRJP1.node[63].wlan[0].mac 	"numGivenUp AC 2" 	0
scalar scenarioPRJP1.node[63].wlan[0].mac 	"numGivenUp AC 3" 	0
scalar scenarioPRJP1.node[63].wlan[0].mac 	"numDropped AC 0" 	0
scalar scenarioPRJP1.node[63].wlan[0].mac 	"numDropped AC 1" 	0
scalar scenarioPRJP1.node[63].wlan[0].mac 	"numDropped AC 2" 	0
scalar scenarioPRJP1.node[63].wlan[0].mac 	"numDropped AC 3" 	0
scalar scenarioPRJP1.node[63].wlan[0].mac 	rcvdPkFromLL:count 	22032
attr interpolationmode  none
attr source  packetReceivedFromLower
attr title  "packets received from lower layer, count"
scalar scenarioPRJP1.node[63].wlan[0].mac 	rcvdPkFromLL:sum(packetBytes) 	3353156
attr interpolationmode  none
attr source  packetReceivedFromLower
attr title  "packets received from lower layer, sum(packetBytes)"
scalar scenarioPRJP1.node[63].wlan[0].mac 	sentDownPk:count 	2822
attr interpolationmode  none
attr source  packetSentToLower
attr title  "packets sent to lower layer, count"
scalar scenarioPRJP1.node[63].wlan[0].mac 	sentDownPk:sum(packetBytes) 	453416
attr interpolationmode  none
attr source  packetSentToLower
attr title  "packets sent to lower layer, sum(packetBytes)"
scalar scenarioPRJP1.node[63].wlan[0].mac 	rcvdPkFromHL:count 	2244
attr interpolationmode  none
attr source  packetReceivedFromUpper
attr title  "packets received from higher layer, count"
scalar scenarioPRJP1.node[63].wlan[0].mac 	rcvdPkFromHL:sum(packetBytes) 	270376
attr interpolationmode  none
attr source  packetReceivedFromUpper
attr title  "packets received from higher layer, sum(packetBytes)"
scalar scenarioPRJP1.node[63].wlan[0].mac 	passedUpPk:count 	14389
attr interpolationmode  none
attr source  packetSentToUpper
attr title  "packets passed to higher layer, count"
scalar scenarioPRJP1.node[63].wlan[0].mac 	passedUpPk:sum(packetBytes) 	1320812
attr interpolationmode  none
attr source  packetSentToUpper
attr title  "packets passed to higher layer, sum(packetBytes)"
statistic scenarioPRJP1.node[63].wlan[0].radio 	radioChannel:histogram
field count 1
field mean 3
field stddev -nan
field sum 3
field sqrsum 9
field min 3
field max 3
attr interpolationmode  sample-hold
attr source  radioChannelChanged
attr title  "Radio channel, histogram"
bin	-INF	0
bin	2	0
bin	3	1
bin	4	0
scalar scenarioPRJP1.node[63].wlan[0].radio 	transmissionState:count 	11288
attr interpolationmode  sample-hold
attr source  transmissionStateChanged
attr title  "Radio transmission state, count"
scalar scenarioPRJP1.node[63].wlan[0].radio 	receptionState:count 	75320
attr interpolationmode  sample-hold
attr source  receptionStateChanged
attr title  "Radio reception state, count"
scalar scenarioPRJP1.node[63].wlan[0].radio 	radioMode:count 	5646
attr interpolationmode  sample-hold
attr source  radioModeChanged
attr title  "Radio mode, count"
statistic scenarioPRJP1.node[63].wlan[0].radio 	symbolErrorRate:histogram
field count 0
field mean -nan
field stddev -nan
field sum 0
field sqrsum 0
field min -nan
field max -nan
attr source  symbolErrorRate
attr title  "Symbol error rate, histogram"
bin	-INF	0
bin	-0.5	0
bin	-0.46666666666667	0
bin	-0.43333333333333	0
bin	-0.4	0
bin	-0.36666666666667	0
bin	-0.33333333333333	0
bin	-0.3	0
bin	-0.26666666666667	0
bin	-0.23333333333333	0
bin	-0.2	0
bin	-0.16666666666667	0
bin	-0.13333333333333	0
bin	-0.1	0
bin	-0.066666666666667	0
bin	-0.033333333333333	0
bin	0	0
bin	0.033333333333333	0
bin	0.066666666666667	0
bin	0.1	0
bin	0.13333333333333	0
bin	0.16666666666667	0
bin	0.2	0
bin	0.23333333333333	0
bin	0.26666666666667	0
bin	0.3	0
bin	0.33333333333333	0
bin	0.36666666666667	0
bin	0.4	0
bin	0.43333333333333	0
bin	0.46666666666667	0
bin	0.5	0
statistic scenarioPRJP1.node[63].wlan[0].radio 	bitErrorRate:histogram
field count 0
field mean -nan
field stddev -nan
field sum 0
field sqrsum 0
field min -nan
field max -nan
attr source  bitErrorRate
attr title  "Bit error rate, histogram"
bin	-INF	0
bin	-0.5	0
bin	-0.46666666666667	0
bin	-0.43333333333333	0
bin	-0.4	0
bin	-0.36666666666667	0
bin	-0.33333333333333	0
bin	-0.3	0
bin	-0.26666666666667	0
bin	-0.23333333333333	0
bin	-0.2	0
bin	-0.16666666666667	0
bin	-0.13333333333333	0
bin	-0.1	0
bin	-0.066666666666667	0
bin	-0.033333333333333	0
bin	0	0
bin	0.033333333333333	0
bin	0.066666666666667	0
bin	0.1	0
bin	0.13333333333333	0
bin	0.16666666666667	0
bin	0.2	0
bin	0.23333333333333	0
bin	0.26666666666667	0
bin	0.3	0
bin	0.33333333333333	0
bin	0.36666666666667	0
bin	0.4	0
bin	0.43333333333333	0
bin	0.46666666666667	0
bin	0.5	0
statistic scenarioPRJP1.node[63].wlan[0].radio 	packetErrorRate:histogram
field count 22032
field mean 0.10290539780739
field stddev 0.2922217145819
field sum 2267.2117244923
field sqrsum 2114.6131942772
field min 0
field max 1
attr source  packetErrorRate
attr title  "Packet error rate, histogram"
bin	-INF	0
bin	-0.5	0
bin	-0.43333333333333	0
bin	-0.36666666666667	0
bin	-0.3	0
bin	-0.23333333333333	0
bin	-0.16666666666667	0
bin	-0.1	0
bin	-0.033333333333333	19092
bin	0.033333333333333	283
bin	0.1	134
bin	0.16666666666667	93
bin	0.23333333333333	79
bin	0.3	67
bin	0.36666666666667	48
bin	0.43333333333333	37
bin	0.5	48
bin	0.56666666666667	31
bin	0.63333333333333	32
bin	0.7	32
bin	0.76666666666667	34
bin	0.83333333333333	38
bin	0.9	71
bin	0.96666666666667	1913
bin	1.0333333333333	0
bin	1.1	0
bin	1.1666666666667	0
bin	1.2333333333333	0
bin	1.3	0
bin	1.3666666666667	0
bin	1.4333333333333	0
bin	1.5	0
statistic scenarioPRJP1.node[63].wlan[0].radio 	minSNIR:histogram
field count 22032
field mean 9312.4040688278
field stddev 139748.52886682
field sum 205170886.44441
field sqrsum 4.3216838243836e+14
field min 0.00058554562687748
field max 3012958.8767976
attr source  minSNIR
attr title  "Min SNIR, histogram"
bin	-INF	0
bin	-408.85597032641	0
bin	-354.21281302694	0
bin	-299.56965572747	0
bin	-244.926498428	0
bin	-190.28334112853	0
bin	-135.64018382906	0
bin	-80.997026529594	0
bin	-26.353869230124	13441
bin	28.289288069345	2277
bin	82.932445368814	628
bin	137.57560266828	299
bin	192.21875996775	215
bin	246.86191726722	140
bin	301.50507456669	290
bin	356.14823186616	308
bin	410.79138916563	256
bin	465.4345464651	221
bin	520.07770376457	213
bin	574.72086106404	196
bin	629.36401836351	164
bin	684.00717566298	140
bin	738.65033296245	108
bin	793.29349026191	96
bin	847.93664756138	120
bin	902.57980486085	77
bin	957.22296216032	81
bin	1011.8661194598	55
bin	1066.5092767593	87
bin	1121.1524340587	69
bin	1175.7955913582	47
bin	1230.4387486577	2504
scalar scenarioPRJP1.node[63].lo0.lo 	droppedPkBitError:count 	0
attr interpolationmode  none
attr source  dropPkBitError
attr title  "packets dropped/bit error, count"
scalar scenarioPRJP1.node[63].lo0.lo 	droppedPkBitError:sum(packetBytes) 	0
attr interpolationmode  none
attr source  dropPkBitError
attr title  "packets dropped/bit error, sum(packetBytes)"
scalar scenarioPRJP1.node[63].lo0.lo 	rcvdPkFromHL:count 	0
attr interpolationmode  none
attr source  packetReceivedFromUpper
attr title  "packets received from higher layer, count"
scalar scenarioPRJP1.node[63].lo0.lo 	rcvdPkFromHL:sum(packetBytes) 	0
attr interpolationmode  none
attr source  packetReceivedFromUpper
attr title  "packets received from higher layer, sum(packetBytes)"
scalar scenarioPRJP1.node[63].lo0.lo 	passedUpPk:count 	0
attr interpolationmode  none
attr source  packetSentToUpper
attr title  "packets passed to higher layer, count"
scalar scenarioPRJP1.node[63].lo0.lo 	passedUpPk:sum(packetBytes) 	0
attr interpolationmode  none
attr source  packetSentToUpper
attr title  "packets passed to higher layer, sum(packetBytes)"
scalar scenarioPRJP1.node[31].app 	"Total sent" 	614
scalar scenarioPRJP1.node[31].app 	"Total received" 	110
scalar scenarioPRJP1.node[31].app 	"Total deleted" 	13
scalar scenarioPRJP1.node[31].app 	dropPk:count 	13
attr interpolationmode  none
attr source  dropPk
attr title  "packets dropped, count"
scalar scenarioPRJP1.node[31].app 	dropPk:sum(packetBytes) 	6656
attr interpolationmode  none
attr source  dropPk
attr title  "packets dropped, sum(packetBytes)"
scalar scenarioPRJP1.node[31].app 	outOfOrderPk:count 	4
attr interpolationmode  none
attr source  outOfOrderPk
attr title  "packets received out of order, count"
scalar scenarioPRJP1.node[31].app 	outOfOrderPk:sum(packetBytes) 	2048
attr interpolationmode  none
attr source  outOfOrderPk
attr title  "packets received out of order, sum(packetBytes)"
scalar scenarioPRJP1.node[31].app 	rcvdPk:count 	110
attr interpolationmode  none
attr source  rcvdPk
attr title  "packets received, count"
scalar scenarioPRJP1.node[31].app 	rcvdPk:sum(packetBytes) 	56320
attr interpolationmode  none
attr source  rcvdPk
attr title  "packets received, sum(packetBytes)"
statistic scenarioPRJP1.node[31].app 	endToEndDelay:histogram
field count 110
field mean 1.3691293660497
field stddev 3.5856672639421
field sum 150.60423026546
field sqrsum 1607.6107346277
field min 0.000891011007
field max 16.667197653018
attr interpolationmode  none
attr source  messageAge(rcvdPk)
attr title  "delay, histogram"
attr unit  s
bin	-INF	0
bin	-8.1226057784695	0
bin	-7.039472873206	0
bin	-5.9563399679424	0
bin	-4.8732070626789	0
bin	-3.7900741574154	0
bin	-2.7069412521518	0
bin	-1.6238083468883	0
bin	-0.54067544162477	84
bin	0.54245746363877	10
bin	1.6255903689023	3
bin	2.7087232741658	1
bin	3.7918561794294	2
bin	4.8749890846929	0
bin	5.9581219899564	1
bin	7.04125489522	1
bin	8.1243878004835	0
bin	9.207520705747	0
bin	10.290653611011	2
bin	11.373786516274	2
bin	12.456919421538	1
bin	13.540052326801	1
bin	14.623185232065	0
bin	15.706318137328	2
bin	16.789451042592	0
bin	17.872583947855	0
bin	18.955716853119	0
bin	20.038849758382	0
bin	21.121982663646	0
bin	22.205115568909	0
bin	23.288248474173	0
bin	24.371381379436	0
scalar scenarioPRJP1.node[31].app 	sentPk:count 	614
attr interpolationmode  none
attr source  sentPk
attr title  "packets sent, count"
scalar scenarioPRJP1.node[31].app 	sentPk:sum(packetBytes) 	314368
attr interpolationmode  none
attr source  sentPk
attr title  "packets sent, sum(packetBytes)"
scalar scenarioPRJP1.node[31].udp 	droppedPkBadChecksum:count 	0
attr interpolationmode  none
attr title  "packets dropped (checksum error), count"
scalar scenarioPRJP1.node[31].udp 	droppedPkWrongPort:count 	0
attr interpolationmode  none
attr title  "packets dropped (wrong port), count"
scalar scenarioPRJP1.node[31].udp 	passedUpPk:count 	127
attr interpolationmode  none
attr title  "packets passed up, count"
scalar scenarioPRJP1.node[31].udp 	rcvdPk:count 	127
attr interpolationmode  none
attr source  rcvdPk
attr title  "packets received, count"
scalar scenarioPRJP1.node[31].udp 	rcvdPk:sum(packetBytes) 	66040
attr interpolationmode  none
attr source  rcvdPk
attr title  "packets received, sum(packetBytes)"
scalar scenarioPRJP1.node[31].udp 	sentPk:count 	613
attr interpolationmode  none
attr source  sentPk
attr title  "packets sent, count"
scalar scenarioPRJP1.node[31].udp 	sentPk:sum(packetBytes) 	318760
attr interpolationmode  none
attr source  sentPk
attr title  "packets sent, sum(packetBytes)"
scalar scenarioPRJP1.node[31].networkLayer.arp 	failedARPResolution:count 	0
attr title  "ARP failed resolutions, count"
scalar scenarioPRJP1.node[31].networkLayer.arp 	completedARPResolution:count 	201
attr title  "ARP completed resolutions, count"
scalar scenarioPRJP1.node[31].networkLayer.arp 	initiatedARPResolution:count 	10
attr title  "ARP initiated resolutions, count"
scalar scenarioPRJP1.node[31].networkLayer.arp 	sentReply:count 	21
attr title  "ARP replies sent, count"
scalar scenarioPRJP1.node[31].networkLayer.arp 	sentReq:count 	14
attr title  "ARP request sent, count"
scalar scenarioPRJP1.node[31].mobility 	startTime 	2.5
scalar scenarioPRJP1.node[31].mobility 	totalTime 	243.4
scalar scenarioPRJP1.node[31].mobility 	stopTime 	246
scalar scenarioPRJP1.node[31].mobility 	minSpeed 	2.4767815491812e-13
scalar scenarioPRJP1.node[31].mobility 	maxSpeed 	18.00386755193
scalar scenarioPRJP1.node[31].mobility 	totalDistance 	2233.1528833486
scalar scenarioPRJP1.node[31].mobility 	totalCO2Emission 	654.39464917859
scalar scenarioPRJP1.node[31].wlan[0].mgmt 	dataQueueLen:max 	7
attr interpolationmode  sample-hold
attr title  "data queue length, max"
scalar scenarioPRJP1.node[31].wlan[0].mgmt 	dataQueueLen:timeavg 	0
attr interpolationmode  sample-hold
attr title  "data queue length, timeavg"
scalar scenarioPRJP1.node[31].wlan[0].mgmt 	dropPkByQueue:count 	0
attr interpolationmode  none
attr source  dropPkByQueue
attr title  "packets dropped by queue, count"
scalar scenarioPRJP1.node[31].wlan[0].mgmt 	dropPkByQueue:sum(packetBytes) 	0
attr interpolationmode  none
attr source  dropPkByQueue
attr title  "packets dropped by queue, sum(packetBytes)"
scalar scenarioPRJP1.node[31].wlan[0].mac 	"number of received packets" 	383
scalar scenarioPRJP1.node[31].wlan[0].mac 	"number of collisions" 	3019
scalar scenarioPRJP1.node[31].wlan[0].mac 	"number of internal collisions" 	0
scalar scenarioPRJP1.node[31].wlan[0].mac 	"number of retry for AC 0" 	418
scalar scenarioPRJP1.node[31].wlan[0].mac 	"number of retry for AC 1" 	0
scalar scenarioPRJP1.node[31].wlan[0].mac 	"number of retry for AC 2" 	0
scalar scenarioPRJP1.node[31].wlan[0].mac 	"number of retry for AC 3" 	0
scalar scenarioPRJP1.node[31].wlan[0].mac 	"sent and received bits" 	3034304
scalar scenarioPRJP1.node[31].wlan[0].mac 	"sent packet within AC 0" 	319
scalar scenarioPRJP1.node[31].wlan[0].mac 	"sent packet within AC 1" 	0
scalar scenarioPRJP1.node[31].wlan[0].mac 	"sent packet within AC 2" 	0
scalar scenarioPRJP1.node[31].wlan[0].mac 	"sent packet within AC 3" 	0
scalar scenarioPRJP1.node[31].wlan[0].mac 	"sent in TXOP " 	0
scalar scenarioPRJP1.node[31].wlan[0].mac 	"sentWithoutRetry AC 0" 	234
scalar scenarioPRJP1.node[31].wlan[0].mac 	"sentWithoutRetry AC 1" 	0
scalar scenarioPRJP1.node[31].wlan[0].mac 	"sentWithoutRetry AC 2" 	0
scalar scenarioPRJP1.node[31].wlan[0].mac 	"sentWithoutRetry AC 3" 	0
scalar scenarioPRJP1.node[31].wlan[0].mac 	"numGivenUp AC 0" 	28
scalar scenarioPRJP1.node[31].wlan[0].mac 	"numGivenUp AC 1" 	0
scalar scenarioPRJP1.node[31].wlan[0].mac 	"numGivenUp AC 2" 	0
scalar scenarioPRJP1.node[31].wlan[0].mac 	"numGivenUp AC 3" 	0
scalar scenarioPRJP1.node[31].wlan[0].mac 	"numDropped AC 0" 	0
scalar scenarioPRJP1.node[31].wlan[0].mac 	"numDropped AC 1" 	0
scalar scenarioPRJP1.node[31].wlan[0].mac 	"numDropped AC 2" 	0
scalar scenarioPRJP1.node[31].wlan[0].mac 	"numDropped AC 3" 	0
scalar scenarioPRJP1.node[31].wlan[0].mac 	rcvdPkFromLL:count 	27345
attr interpolationmode  none
attr source  packetReceivedFromLower
attr title  "packets received from lower layer, count"
scalar scenarioPRJP1.node[31].wlan[0].mac 	rcvdPkFromLL:sum(packetBytes) 	4317450
attr interpolationmode  none
attr source  packetReceivedFromLower
attr title  "packets received from lower layer, sum(packetBytes)"
scalar scenarioPRJP1.node[31].wlan[0].mac 	sentDownPk:count 	3830
attr interpolationmode  none
attr source  packetSentToLower
attr title  "packets sent to lower layer, count"
scalar scenarioPRJP1.node[31].wlan[0].mac 	sentDownPk:sum(packetBytes) 	608814
attr interpolationmode  none
attr source  packetSentToLower
attr title  "packets sent to lower layer, sum(packetBytes)"
scalar scenarioPRJP1.node[31].wlan[0].mac 	rcvdPkFromHL:count 	3029
attr interpolationmode  none
attr source  packetReceivedFromUpper
attr title  "packets received from higher layer, count"
scalar scenarioPRJP1.node[31].wlan[0].mac 	rcvdPkFromHL:sum(packetBytes) 	394924
attr interpolationmode  none
attr source  packetReceivedFromUpper
attr title  "packets received from higher layer, sum(packetBytes)"
scalar scenarioPRJP1.node[31].wlan[0].mac 	passedUpPk:count 	18064
attr interpolationmode  none
attr source  packetSentToUpper
attr title  "packets passed to higher layer, count"
scalar scenarioPRJP1.node[31].wlan[0].mac 	passedUpPk:sum(packetBytes) 	1685592
attr interpolationmode  none
attr source  packetSentToUpper
attr title  "packets passed to higher layer, sum(packetBytes)"
statistic scenarioPRJP1.node[31].wlan[0].radio 	radioChannel:histogram
field count 1
field mean 3
field stddev -nan
field sum 3
field sqrsum 9
field min 3
field max 3
attr interpolationmode  sample-hold
attr source  radioChannelChanged
attr title  "Radio channel, histogram"
bin	-INF	0
bin	2	0
bin	3	1
bin	4	0
scalar scenarioPRJP1.node[31].wlan[0].radio 	transmissionState:count 	15320
attr interpolationmode  sample-hold
attr source  transmissionStateChanged
attr title  "Radio transmission state, count"
scalar scenarioPRJP1.node[31].wlan[0].radio 	receptionState:count 	108340
attr interpolationmode  sample-hold
attr source  receptionStateChanged
attr title  "Radio reception state, count"
scalar scenarioPRJP1.node[31].wlan[0].radio 	radioMode:count 	7662
attr interpolationmode  sample-hold
attr source  radioModeChanged
attr title  "Radio mode, count"
statistic scenarioPRJP1.node[31].wlan[0].radio 	symbolErrorRate:histogram
field count 0
field mean -nan
field stddev -nan
field sum 0
field sqrsum 0
field min -nan
field max -nan
attr source  symbolErrorRate
attr title  "Symbol error rate, histogram"
bin	-INF	0
bin	-0.5	0
bin	-0.46666666666667	0
bin	-0.43333333333333	0
bin	-0.4	0
bin	-0.36666666666667	0
bin	-0.33333333333333	0
bin	-0.3	0
bin	-0.26666666666667	0
bin	-0.23333333333333	0
bin	-0.2	0
bin	-0.16666666666667	0
bin	-0.13333333333333	0
bin	-0.1	0
bin	-0.066666666666667	0
bin	-0.033333333333333	0
bin	0	0
bin	0.033333333333333	0
bin	0.066666666666667	0
bin	0.1	0
bin	0.13333333333333	0
bin	0.16666666666667	0
bin	0.2	0
bin	0.23333333333333	0
bin	0.26666666666667	0
bin	0.3	0
bin	0.33333333333333	0
bin	0.36666666666667	0
bin	0.4	0
bin	0.43333333333333	0
bin	0.46666666666667	0
bin	0.5	0
statistic scenarioPRJP1.node[31].wlan[0].radio 	bitErrorRate:histogram
field count 0
field mean -nan
field stddev -nan
field sum 0
field sqrsum 0
field min -nan
field max -nan
attr source  bitErrorRate
attr title  "Bit error rate, histogram"
bin	-INF	0
bin	-0.5	0
bin	-0.46666666666667	0
bin	-0.43333333333333	0
bin	-0.4	0
bin	-0.36666666666667	0
bin	-0.33333333333333	0
bin	-0.3	0
bin	-0.26666666666667	0
bin	-0.23333333333333	0
bin	-0.2	0
bin	-0.16666666666667	0
bin	-0.13333333333333	0
bin	-0.1	0
bin	-0.066666666666667	0
bin	-0.033333333333333	0
bin	0	0
bin	0.033333333333333	0
bin	0.066666666666667	0
bin	0.1	0
bin	0.13333333333333	0
bin	0.16666666666667	0
bin	0.2	0
bin	0.23333333333333	0
bin	0.26666666666667	0
bin	0.3	0
bin	0.33333333333333	0
bin	0.36666666666667	0
bin	0.4	0
bin	0.43333333333333	0
bin	0.46666666666667	0
bin	0.5	0
statistic scenarioPRJP1.node[31].wlan[0].radio 	packetErrorRate:histogram
field count 27345
field mean 0.088022602524498
field stddev 0.27472894680495
field sum 2406.9780660324
field sqrsum 2275.6840593397
field min 0
field max 1
attr source  packetErrorRate
attr title  "Packet error rate, histogram"
bin	-INF	0
bin	-0.5	0
bin	-0.43333333333333	0
bin	-0.36666666666667	0
bin	-0.3	0
bin	-0.23333333333333	0
bin	-0.16666666666667	0
bin	-0.1	0
bin	-0.033333333333333	24386
bin	0.033333333333333	229
bin	0.1	112
bin	0.16666666666667	80
bin	0.23333333333333	50
bin	0.3	50
bin	0.36666666666667	40
bin	0.43333333333333	42
bin	0.5	40
bin	0.56666666666667	26
bin	0.63333333333333	28
bin	0.7	35
bin	0.76666666666667	41
bin	0.83333333333333	38
bin	0.9	59
bin	0.96666666666667	2089
bin	1.0333333333333	0
bin	1.1	0
bin	1.1666666666667	0
bin	1.2333333333333	0
bin	1.3	0
bin	1.3666666666667	0
bin	1.4333333333333	0
bin	1.5	0
statistic scenarioPRJP1.node[31].wlan[0].radio 	minSNIR:histogram
field count 27345
field mean 51805.603361937
field stddev 625494.57730997
field sum 1416624223.9322
field sqrsum 1.0771550413639e+16
field min 0.00010629367734678
field max 59275068.718591
attr source  minSNIR
attr title  "Min SNIR, histogram"
bin	-INF	0
bin	-1378.8247430447	0
bin	-1194.8220417748	0
bin	-1010.8193405048	0
bin	-826.81663923479	0
bin	-642.81393796481	0
bin	-458.81123669483	0
bin	-274.80853542484	0
bin	-90.805834154861	15051
bin	93.196867115123	1517
bin	277.19956838511	1827
bin	461.20226965509	983
bin	645.20497092507	673
bin	829.20767219506	369
bin	1013.210373465	264
bin	1197.213074735	218
bin	1381.215776005	218
bin	1565.218477275	173
bin	1749.221178545	163
bin	1933.223879815	155
bin	2117.2265810849	152
bin	2301.2292823549	175
bin	2485.2319836249	144
bin	2669.2346848949	140
bin	2853.2373861649	146
bin	3037.2400874349	100
bin	3221.2427887048	104
bin	3405.2454899748	109
bin	3589.2481912448	87
bin	3773.2508925148	55
bin	3957.2535937848	50
bin	4141.2562950548	4472
scalar scenarioPRJP1.node[31].lo0.lo 	droppedPkBitError:count 	0
attr interpolationmode  none
attr source  dropPkBitError
attr title  "packets dropped/bit error, count"
scalar scenarioPRJP1.node[31].lo0.lo 	droppedPkBitError:sum(packetBytes) 	0
attr interpolationmode  none
attr source  dropPkBitError
attr title  "packets dropped/bit error, sum(packetBytes)"
scalar scenarioPRJP1.node[31].lo0.lo 	rcvdPkFromHL:count 	0
attr interpolationmode  none
attr source  packetReceivedFromUpper
attr title  "packets received from higher layer, count"
scalar scenarioPRJP1.node[31].lo0.lo 	rcvdPkFromHL:sum(packetBytes) 	0
attr interpolationmode  none
attr source  packetReceivedFromUpper
attr title  "packets received from higher layer, sum(packetBytes)"
scalar scenarioPRJP1.node[31].lo0.lo 	passedUpPk:count 	0
attr interpolationmode  none
attr source  packetSentToUpper
attr title  "packets passed to higher layer, count"
scalar scenarioPRJP1.node[31].lo0.lo 	passedUpPk:sum(packetBytes) 	0
attr interpolationmode  none
attr source  packetSentToUpper
attr title  "packets passed to higher layer, sum(packetBytes)"
scalar scenarioPRJP1.node[85].app 	"Total sent" 	715
scalar scenarioPRJP1.node[85].app 	"Total received" 	69
scalar scenarioPRJP1.node[85].app 	"Total deleted" 	10
scalar scenarioPRJP1.node[85].app 	dropPk:count 	10
attr interpolationmode  none
attr source  dropPk
attr title  "packets dropped, count"
scalar scenarioPRJP1.node[85].app 	dropPk:sum(packetBytes) 	5120
attr interpolationmode  none
attr source  dropPk
attr title  "packets dropped, sum(packetBytes)"
scalar scenarioPRJP1.node[85].app 	outOfOrderPk:count 	0
attr interpolationmode  none
attr source  outOfOrderPk
attr title  "packets received out of order, count"
scalar scenarioPRJP1.node[85].app 	outOfOrderPk:sum(packetBytes) 	0
attr interpolationmode  none
attr source  outOfOrderPk
attr title  "packets received out of order, sum(packetBytes)"
scalar scenarioPRJP1.node[85].app 	rcvdPk:count 	69
attr interpolationmode  none
attr source  rcvdPk
attr title  "packets received, count"
scalar scenarioPRJP1.node[85].app 	rcvdPk:sum(packetBytes) 	35328
attr interpolationmode  none
attr source  rcvdPk
attr title  "packets received, sum(packetBytes)"
statistic scenarioPRJP1.node[85].app 	endToEndDelay:histogram
field count 69
field mean 1.2453890079641
field stddev 3.8392433180175
field sum 85.931841549524
field sqrsum 1109.3242402359
field min 0.000891159327
field max 19.355369838737
attr interpolationmode  none
attr source  messageAge(rcvdPk)
attr title  "delay, histogram"
attr unit  s
bin	-INF	0
bin	-9.676348180378	0
bin	-8.3860496017507	0
bin	-7.0957510231233	0
bin	-5.805452444496	0
bin	-4.5151538658687	0
bin	-3.2248552872413	0
bin	-1.934556708614	0
bin	-0.64425812998667	58
bin	0.64604044864067	3
bin	1.936339027268	2
bin	3.2266376058953	0
bin	4.5169361845227	1
bin	5.80723476315	0
bin	7.0975333417773	0
bin	8.3878319204047	1
bin	9.678130499032	1
bin	10.968429077659	0
bin	12.258727656287	0
bin	13.549026234914	1
bin	14.839324813541	0
bin	16.129623392169	1
bin	17.419921970796	0
bin	18.710220549423	1
bin	20.000519128051	0
bin	21.290817706678	0
bin	22.581116285305	0
bin	23.871414863933	0
bin	25.16171344256	0
bin	26.452012021187	0
bin	27.742310599815	0
bin	29.032609178442	0
scalar scenarioPRJP1.node[85].app 	sentPk:count 	715
attr interpolationmode  none
attr source  sentPk
attr title  "packets sent, count"
scalar scenarioPRJP1.node[85].app 	sentPk:sum(packetBytes) 	366080
attr interpolationmode  none
attr source  sentPk
attr title  "packets sent, sum(packetBytes)"
scalar scenarioPRJP1.node[85].udp 	droppedPkBadChecksum:count 	0
attr interpolationmode  none
attr title  "packets dropped (checksum error), count"
scalar scenarioPRJP1.node[85].udp 	droppedPkWrongPort:count 	0
attr interpolationmode  none
attr title  "packets dropped (wrong port), count"
scalar scenarioPRJP1.node[85].udp 	passedUpPk:count 	79
attr interpolationmode  none
attr title  "packets passed up, count"
scalar scenarioPRJP1.node[85].udp 	rcvdPk:count 	79
attr interpolationmode  none
attr source  rcvdPk
attr title  "packets received, count"
scalar scenarioPRJP1.node[85].udp 	rcvdPk:sum(packetBytes) 	41080
attr interpolationmode  none
attr source  rcvdPk
attr title  "packets received, sum(packetBytes)"
scalar scenarioPRJP1.node[85].udp 	sentPk:count 	715
attr interpolationmode  none
attr source  sentPk
attr title  "packets sent, count"
scalar scenarioPRJP1.node[85].udp 	sentPk:sum(packetBytes) 	371800
attr interpolationmode  none
attr source  sentPk
attr title  "packets sent, sum(packetBytes)"
scalar scenarioPRJP1.node[85].networkLayer.arp 	failedARPResolution:count 	2
attr title  "ARP failed resolutions, count"
scalar scenarioPRJP1.node[85].networkLayer.arp 	completedARPResolution:count 	290
attr title  "ARP completed resolutions, count"
scalar scenarioPRJP1.node[85].networkLayer.arp 	initiatedARPResolution:count 	19
attr title  "ARP initiated resolutions, count"
scalar scenarioPRJP1.node[85].networkLayer.arp 	sentReply:count 	23
attr title  "ARP replies sent, count"
scalar scenarioPRJP1.node[85].networkLayer.arp 	sentReq:count 	29
attr title  "ARP request sent, count"
scalar scenarioPRJP1.node[85].mobility 	startTime 	9.7
scalar scenarioPRJP1.node[85].mobility 	totalTime 	273.3
scalar scenarioPRJP1.node[85].mobility 	stopTime 	283.1
scalar scenarioPRJP1.node[85].mobility 	minSpeed 	2.4756879159076e-13
scalar scenarioPRJP1.node[85].mobility 	maxSpeed 	18.126357789278
scalar scenarioPRJP1.node[85].mobility 	totalDistance 	2205.5796441286
scalar scenarioPRJP1.node[85].mobility 	totalCO2Emission 	721.85567085253
scalar scenarioPRJP1.node[85].wlan[0].mgmt 	dataQueueLen:max 	11
attr interpolationmode  sample-hold
attr title  "data queue length, max"
scalar scenarioPRJP1.node[85].wlan[0].mgmt 	dataQueueLen:timeavg 	0
attr interpolationmode  sample-hold
attr title  "data queue length, timeavg"
scalar scenarioPRJP1.node[85].wlan[0].mgmt 	dropPkByQueue:count 	0
attr interpolationmode  none
attr source  dropPkByQueue
attr title  "packets dropped by queue, count"
scalar scenarioPRJP1.node[85].wlan[0].mgmt 	dropPkByQueue:sum(packetBytes) 	0
attr interpolationmode  none
attr source  dropPkByQueue
attr title  "packets dropped by queue, sum(packetBytes)"
scalar scenarioPRJP1.node[85].wlan[0].mac 	"number of received packets" 	445
scalar scenarioPRJP1.node[85].wlan[0].mac 	"number of collisions" 	7339
scalar scenarioPRJP1.node[85].wlan[0].mac 	"number of internal collisions" 	0
scalar scenarioPRJP1.node[85].wlan[0].mac 	"number of retry for AC 0" 	563
scalar scenarioPRJP1.node[85].wlan[0].mac 	"number of retry for AC 1" 	0
scalar scenarioPRJP1.node[85].wlan[0].mac 	"number of retry for AC 2" 	0
scalar scenarioPRJP1.node[85].wlan[0].mac 	"number of retry for AC 3" 	0
scalar scenarioPRJP1.node[85].wlan[0].mac 	"sent and received bits" 	3851776
scalar scenarioPRJP1.node[85].wlan[0].mac 	"sent packet within AC 0" 	447
scalar scenarioPRJP1.node[85].wlan[0].mac 	"sent packet within AC 1" 	0
scalar scenarioPRJP1.node[85].wlan[0].mac 	"sent packet within AC 2" 	0
scalar scenarioPRJP1.node[85].wlan[0].mac 	"sent packet within AC 3" 	0
scalar scenarioPRJP1.node[85].wlan[0].mac 	"sent in TXOP " 	0
scalar scenarioPRJP1.node[85].wlan[0].mac 	"sentWithoutRetry AC 0" 	340
scalar scenarioPRJP1.node[85].wlan[0].mac 	"sentWithoutRetry AC 1" 	0
scalar scenarioPRJP1.node[85].wlan[0].mac 	"sentWithoutRetry AC 2" 	0
scalar scenarioPRJP1.node[85].wlan[0].mac 	"sentWithoutRetry AC 3" 	0
scalar scenarioPRJP1.node[85].wlan[0].mac 	"numGivenUp AC 0" 	47
scalar scenarioPRJP1.node[85].wlan[0].mac 	"numGivenUp AC 1" 	0
scalar scenarioPRJP1.node[85].wlan[0].mac 	"numGivenUp AC 2" 	0
scalar scenarioPRJP1.node[85].wlan[0].mac 	"numGivenUp AC 3" 	0
scalar scenarioPRJP1.node[85].wlan[0].mac 	"numDropped AC 0" 	0
scalar scenarioPRJP1.node[85].wlan[0].mac 	"numDropped AC 1" 	0
scalar scenarioPRJP1.node[85].wlan[0].mac 	"numDropped AC 2" 	0
scalar scenarioPRJP1.node[85].wlan[0].mac 	"numDropped AC 3" 	0
scalar scenarioPRJP1.node[85].wlan[0].mac 	rcvdPkFromLL:count 	54200
attr interpolationmode  none
attr source  packetReceivedFromLower
attr title  "packets received from lower layer, count"
scalar scenarioPRJP1.node[85].wlan[0].mac 	rcvdPkFromLL:sum(packetBytes) 	7787848
attr interpolationmode  none
attr source  packetReceivedFromLower
attr title  "packets received from lower layer, sum(packetBytes)"
scalar scenarioPRJP1.node[85].wlan[0].mac 	sentDownPk:count 	5185
attr interpolationmode  none
attr source  packetSentToLower
attr title  "packets sent to lower layer, count"
scalar scenarioPRJP1.node[85].wlan[0].mac 	sentDownPk:sum(packetBytes) 	761610
attr interpolationmode  none
attr source  packetSentToLower
attr title  "packets sent to lower layer, sum(packetBytes)"
scalar scenarioPRJP1.node[85].wlan[0].mac 	rcvdPkFromHL:count 	4177
attr interpolationmode  none
attr source  packetReceivedFromUpper
attr title  "packets received from higher layer, count"
scalar scenarioPRJP1.node[85].wlan[0].mac 	rcvdPkFromHL:sum(packetBytes) 	505060
attr interpolationmode  none
attr source  packetReceivedFromUpper
attr title  "packets received from higher layer, sum(packetBytes)"
scalar scenarioPRJP1.node[85].wlan[0].mac 	passedUpPk:count 	24940
attr interpolationmode  none
attr source  packetSentToUpper
attr title  "packets passed to higher layer, count"
scalar scenarioPRJP1.node[85].wlan[0].mac 	passedUpPk:sum(packetBytes) 	2302372
attr interpolationmode  none
attr source  packetSentToUpper
attr title  "packets passed to higher layer, sum(packetBytes)"
statistic scenarioPRJP1.node[85].wlan[0].radio 	radioChannel:histogram
field count 1
field mean 3
field stddev -nan
field sum 3
field sqrsum 9
field min 3
field max 3
attr interpolationmode  sample-hold
attr source  radioChannelChanged
attr title  "Radio channel, histogram"
bin	-INF	0
bin	2	0
bin	3	1
bin	4	0
scalar scenarioPRJP1.node[85].wlan[0].radio 	transmissionState:count 	20740
attr interpolationmode  sample-hold
attr source  transmissionStateChanged
attr title  "Radio transmission state, count"
scalar scenarioPRJP1.node[85].wlan[0].radio 	receptionState:count 	193985
attr interpolationmode  sample-hold
[...]
attr interpolationmode  none
attr source  packetSentToUpper
attr title  "packets passed to higher layer, sum(packetBytes)"
statistic scenarioPRJP1.node[76].wlan[0].radio 	radioChannel:histogram
field count 1
field mean 3
field stddev -nan
field sum 3
field sqrsum 9
field min 3
field max 3
attr interpolationmode  sample-hold
attr source  radioChannelChanged
attr title  "Radio channel, histogram"
bin	-INF	0
bin	2	0
bin	3	1
bin	4	0
scalar scenarioPRJP1.node[76].wlan[0].radio 	transmissionState:count 	247040
attr interpolationmode  sample-hold
attr source  transmissionStateChanged
attr title  "Radio transmission state, count"
scalar scenarioPRJP1.node[76].wlan[0].radio 	receptionState:count 	1659091
attr interpolationmode  sample-hold
attr source  receptionStateChanged
attr title  "Radio reception state, count"
scalar scenarioPRJP1.node[76].wlan[0].radio 	radioMode:count 	123522
attr interpolationmode  sample-hold
attr source  radioModeChanged
attr title  "Radio mode, count"
statistic scenarioPRJP1.node[76].wlan[0].radio 	symbolErrorRate:histogram
field count 0
field mean -nan
field stddev -nan
field sum 0
field sqrsum 0
field min -nan
field max -nan
attr source  symbolErrorRate
attr title  "Symbol error rate, histogram"
bin	-INF	0
bin	-0.5	0
bin	-0.46666666666667	0
bin	-0.43333333333333	0
bin	-0.4	0
bin	-0.36666666666667	0
bin	-0.33333333333333	0
bin	-0.3	0
bin	-0.26666666666667	0
bin	-0.23333333333333	0
bin	-0.2	0
bin	-0.16666666666667	0
bin	-0.13333333333333	0
bin	-0.1	0
bin	-0.066666666666667	0
bin	-0.033333333333333	0
bin	0	0
bin	0.033333333333333	0
bin	0.066666666666667	0
bin	0.1	0
bin	0.13333333333333	0
bin	0.16666666666667	0
bin	0.2	0
bin	0.23333333333333	0
bin	0.26666666666667	0
bin	0.3	0
bin	0.33333333333333	0
bin	0.36666666666667	0
bin	0.4	0
bin	0.43333333333333	0
bin	0.46666666666667	0
bin	0.5	0
statistic scenarioPRJP1.node[76].wlan[0].radio 	bitErrorRate:histogram
field count 0
field mean -nan
field stddev -nan
field sum 0
field sqrsum 0
field min -nan
field max -nan
attr source  bitErrorRate
attr title  "Bit error rate, histogram"
bin	-INF	0
bin	-0.5	0
bin	-0.46666666666667	0
bin	-0.43333333333333	0
bin	-0.4	0
bin	-0.36666666666667	0
bin	-0.33333333333333	0
bin	-0.3	0
bin	-0.26666666666667	0
bin	-0.23333333333333	0
bin	-0.2	0
bin	-0.16666666666667	0
bin	-0.13333333333333	0
bin	-0.1	0
bin	-0.066666666666667	0
bin	-0.033333333333333	0
bin	0	0
bin	0.033333333333333	0
bin	0.066666666666667	0
bin	0.1	0
bin	0.13333333333333	0
bin	0.16666666666667	0
bin	0.2	0
bin	0.23333333333333	0
bin	0.26666666666667	0
bin	0.3	0
bin	0.33333333333333	0
bin	0.36666666666667	0
bin	0.4	0
bin	0.43333333333333	0
bin	0.46666666666667	0
bin	0.5	0
statistic scenarioPRJP1.node[76].wlan[0].radio 	packetErrorRate:histogram
field count 434595
field mean 0.1267922377677
field stddev 0.32324955526739
field sum 55103.272572653
field sqrsum 52397.513802713
field min 0
field max 1
attr source  packetErrorRate
attr title  "Packet error rate, histogram"
bin	-INF	0
bin	-0.5	0
bin	-0.43333333333333	0
bin	-0.36666666666667	0
bin	-0.3	0
bin	-0.23333333333333	0
bin	-0.16666666666667	0
bin	-0.1	0
bin	-0.033333333333333	368182
bin	0.033333333333333	4711
bin	0.1	2281
bin	0.16666666666667	1516
bin	0.23333333333333	1091
bin	0.3	1042
bin	0.36666666666667	846
bin	0.43333333333333	789
bin	0.5	679
bin	0.56666666666667	707
bin	0.63333333333333	683
bin	0.7	692
bin	0.76666666666667	765
bin	0.83333333333333	897
bin	0.9	1409
bin	0.96666666666667	48305
bin	1.0333333333333	0
bin	1.1	0
bin	1.1666666666667	0
bin	1.2333333333333	0
bin	1.3	0
bin	1.3666666666667	0
bin	1.4333333333333	0
bin	1.5	0
statistic scenarioPRJP1.node[76].wlan[0].radio 	minSNIR:histogram
field count 434595
field mean 15491.911134484
field stddev 153400.59719712
field sum 6732707119.4912
field sqrsum 1.0331056913531e+16
field min 0.00010737019162774
field max 13368977.687579
attr source  minSNIR
attr title  "Min SNIR, histogram"
bin	-INF	0
bin	-20770.891208034	0
bin	-18001.361002351	0
bin	-15231.830796669	0
bin	-12462.300590986	0
bin	-9692.7703853034	0
bin	-6923.2401796207	0
bin	-4153.7099739381	0
bin	-1384.1797682554	354777
bin	1385.3504374272	28822
bin	4154.8806431099	9598
bin	6924.4108487925	5350
bin	9693.9410544752	3707
bin	12463.471260158	2665
bin	15233.001465841	1746
bin	18002.531671523	1342
bin	20772.061877206	1129
bin	23541.592082888	974
bin	26311.122288571	894
bin	29080.652494254	764
bin	31850.182699936	961
bin	34619.712905619	624
bin	37389.243111302	591
bin	40158.773316984	591
bin	42928.303522667	568
bin	45697.83372835	474
bin	48467.363934032	539
bin	51236.894139715	561
bin	54006.424345398	660
bin	56775.95455108	276
bin	59545.484756763	343
bin	62315.014962446	16639
scalar scenarioPRJP1.node[76].lo0.lo 	droppedPkBitError:count 	0
attr interpolationmode  none
attr source  dropPkBitError
attr title  "packets dropped/bit error, count"
scalar scenarioPRJP1.node[76].lo0.lo 	droppedPkBitError:sum(packetBytes) 	0
attr interpolationmode  none
attr source  dropPkBitError
attr title  "packets dropped/bit error, sum(packetBytes)"
scalar scenarioPRJP1.node[76].lo0.lo 	rcvdPkFromHL:count 	0
attr interpolationmode  none
attr source  packetReceivedFromUpper
attr title  "packets received from higher layer, count"
scalar scenarioPRJP1.node[76].lo0.lo 	rcvdPkFromHL:sum(packetBytes) 	0
attr interpolationmode  none
attr source  packetReceivedFromUpper
attr title  "packets received from higher layer, sum(packetBytes)"
scalar scenarioPRJP1.node[76].lo0.lo 	passedUpPk:count 	0
attr interpolationmode  none
attr source  packetSentToUpper
attr title  "packets passed to higher layer, count"
scalar scenarioPRJP1.node[76].lo0.lo 	passedUpPk:sum(packetBytes) 	0
attr interpolationmode  none
attr source  packetSentToUpper
attr title  "packets passed to higher layer, sum(packetBytes)"
scalar scenarioPRJP1.node[98].app 	"Total sent" 	5022
scalar scenarioPRJP1.node[98].app 	"Total received" 	459
scalar scenarioPRJP1.node[98].app 	"Total deleted" 	180
scalar scenarioPRJP1.node[98].app 	dropPk:count 	180
attr interpolationmode  none
attr source  dropPk
attr title  "packets dropped, count"
scalar scenarioPRJP1.node[98].app 	dropPk:sum(packetBytes) 	92160
attr interpolationmode  none
attr source  dropPk
attr title  "packets dropped, sum(packetBytes)"
scalar scenarioPRJP1.node[98].app 	outOfOrderPk:count 	44
attr interpolationmode  none
attr source  outOfOrderPk
attr title  "packets received out of order, count"
scalar scenarioPRJP1.node[98].app 	outOfOrderPk:sum(packetBytes) 	22528
attr interpolationmode  none
attr source  outOfOrderPk
attr title  "packets received out of order, sum(packetBytes)"
scalar scenarioPRJP1.node[98].app 	rcvdPk:count 	459
attr interpolationmode  none
attr source  rcvdPk
attr title  "packets received, count"
scalar scenarioPRJP1.node[98].app 	rcvdPk:sum(packetBytes) 	235008
attr interpolationmode  none
attr source  rcvdPk
attr title  "packets received, sum(packetBytes)"
statistic scenarioPRJP1.node[98].app 	endToEndDelay:histogram
field count 459
field mean 1.5940917373738
field stddev 4.0348851970732
field sum 731.68810745456
field sqrsum 8622.7547039588
field min 0.000891227883
field max 18.872223074079
attr interpolationmode  none
attr source  messageAge(rcvdPk)
attr title  "delay, histogram"
attr unit  s
bin	-INF	0
bin	-5.325242257754	0
bin	-4.6150910749537	0
bin	-3.9049398921535	0
bin	-3.1947887093532	0
bin	-2.4846375265529	0
bin	-1.7744863437527	0
bin	-1.0643351609524	0
bin	-0.35418397815213	357
bin	0.35596720464813	14
bin	1.0661183874484	11
bin	1.7762695702487	10
bin	2.4864207530489	3
bin	3.1965719358492	6
bin	3.9067231186495	5
bin	4.6168743014497	4
bin	5.32702548425	5
bin	6.0371766670503	0
bin	6.7473278498505	3
bin	7.4574790326508	0
bin	8.1676302154511	6
bin	8.8777813982513	1
bin	9.5879325810516	2
bin	10.298083763852	2
bin	11.008234946652	4
bin	11.718386129452	3
bin	12.428537312253	0
bin	13.138688495053	1
bin	13.848839677853	5
bin	14.558990860653	1
bin	15.269142043454	1
bin	15.979293226254	15
scalar scenarioPRJP1.node[98].app 	sentPk:count 	5022
attr interpolationmode  none
attr source  sentPk
attr title  "packets sent, count"
scalar scenarioPRJP1.node[98].app 	sentPk:sum(packetBytes) 	2571264
attr interpolationmode  none
attr source  sentPk
attr title  "packets sent, sum(packetBytes)"
scalar scenarioPRJP1.node[98].udp 	droppedPkBadChecksum:count 	0
attr interpolationmode  none
attr title  "packets dropped (checksum error), count"
scalar scenarioPRJP1.node[98].udp 	droppedPkWrongPort:count 	1
attr interpolationmode  none
attr title  "packets dropped (wrong port), count"
scalar scenarioPRJP1.node[98].udp 	passedUpPk:count 	683
attr interpolationmode  none
attr title  "packets passed up, count"
scalar scenarioPRJP1.node[98].udp 	rcvdPk:count 	684
attr interpolationmode  none
attr source  rcvdPk
attr title  "packets received, count"
scalar scenarioPRJP1.node[98].udp 	rcvdPk:sum(packetBytes) 	355680
attr interpolationmode  none
attr source  rcvdPk
attr title  "packets received, sum(packetBytes)"
scalar scenarioPRJP1.node[98].udp 	sentPk:count 	5022
attr interpolationmode  none
attr source  sentPk
attr title  "packets sent, count"
scalar scenarioPRJP1.node[98].udp 	sentPk:sum(packetBytes) 	2611440
attr interpolationmode  none
attr source  sentPk
attr title  "packets sent, sum(packetBytes)"
scalar scenarioPRJP1.node[98].networkLayer.arp 	failedARPResolution:count 	33
attr title  "ARP failed resolutions, count"
scalar scenarioPRJP1.node[98].networkLayer.arp 	completedARPResolution:count 	1747
attr title  "ARP completed resolutions, count"
scalar scenarioPRJP1.node[98].networkLayer.arp 	initiatedARPResolution:count 	157
attr title  "ARP initiated resolutions, count"
scalar scenarioPRJP1.node[98].networkLayer.arp 	sentReply:count 	114
attr title  "ARP replies sent, count"
scalar scenarioPRJP1.node[98].networkLayer.arp 	sentReq:count 	275
attr title  "ARP request sent, count"
scalar scenarioPRJP1.node[98].mobility 	startTime 	9.8
scalar scenarioPRJP1.node[98].mobility 	totalTime 	1890.2
scalar scenarioPRJP1.node[98].mobility 	stopTime 	1900
scalar scenarioPRJP1.node[98].mobility 	minSpeed 	2.4757012505304e-13
scalar scenarioPRJP1.node[98].mobility 	maxSpeed 	16.312995066709
scalar scenarioPRJP1.node[98].mobility 	totalDistance 	16811.399213604
scalar scenarioPRJP1.node[98].mobility 	totalCO2Emission 	4551.887368874
scalar scenarioPRJP1.node[98].wlan[0].mgmt 	dataQueueLen:max 	27
attr interpolationmode  sample-hold
attr title  "data queue length, max"
scalar scenarioPRJP1.node[98].wlan[0].mgmt 	dataQueueLen:timeavg 	0
attr interpolationmode  sample-hold
attr title  "data queue length, timeavg"
scalar scenarioPRJP1.node[98].wlan[0].mgmt 	dropPkByQueue:count 	0
attr interpolationmode  none
attr source  dropPkByQueue
attr title  "packets dropped by queue, count"
scalar scenarioPRJP1.node[98].wlan[0].mgmt 	dropPkByQueue:sum(packetBytes) 	0
attr interpolationmode  none
attr source  dropPkByQueue
attr title  "packets dropped by queue, sum(packetBytes)"
scalar scenarioPRJP1.node[98].wlan[0].mac 	"number of received packets" 	8590
scalar scenarioPRJP1.node[98].wlan[0].mac 	"number of collisions" 	80381
scalar scenarioPRJP1.node[98].wlan[0].mac 	"number of internal collisions" 	0
scalar scenarioPRJP1.node[98].wlan[0].mac 	"number of retry for AC 0" 	8438
scalar scenarioPRJP1.node[98].wlan[0].mac 	"number of retry for AC 1" 	35
scalar scenarioPRJP1.node[98].wlan[0].mac 	"number of retry for AC 2" 	0
scalar scenarioPRJP1.node[98].wlan[0].mac 	"number of retry for AC 3" 	0
scalar scenarioPRJP1.node[98].wlan[0].mac 	"sent and received bits" 	46980384
scalar scenarioPRJP1.node[98].wlan[0].mac 	"sent packet within AC 0" 	8299
scalar scenarioPRJP1.node[98].wlan[0].mac 	"sent packet within AC 1" 	16
scalar scenarioPRJP1.node[98].wlan[0].mac 	"sent packet within AC 2" 	0
scalar scenarioPRJP1.node[98].wlan[0].mac 	"sent packet within AC 3" 	0
scalar scenarioPRJP1.node[98].wlan[0].mac 	"sent in TXOP " 	0
scalar scenarioPRJP1.node[98].wlan[0].mac 	"sentWithoutRetry AC 0" 	6676
scalar scenarioPRJP1.node[98].wlan[0].mac 	"sentWithoutRetry AC 1" 	12
scalar scenarioPRJP1.node[98].wlan[0].mac 	"sentWithoutRetry AC 2" 	0
scalar scenarioPRJP1.node[98].wlan[0].mac 	"sentWithoutRetry AC 3" 	0
scalar scenarioPRJP1.node[98].wlan[0].mac 	"numGivenUp AC 0" 	752
scalar scenarioPRJP1.node[98].wlan[0].mac 	"numGivenUp AC 1" 	4
scalar scenarioPRJP1.node[98].wlan[0].mac 	"numGivenUp AC 2" 	0
scalar scenarioPRJP1.node[98].wlan[0].mac 	"numGivenUp AC 3" 	0
scalar scenarioPRJP1.node[98].wlan[0].mac 	"numDropped AC 0" 	0
scalar scenarioPRJP1.node[98].wlan[0].mac 	"numDropped AC 1" 	0
scalar scenarioPRJP1.node[98].wlan[0].mac 	"numDropped AC 2" 	0
scalar scenarioPRJP1.node[98].wlan[0].mac 	"numDropped AC 3" 	0
scalar scenarioPRJP1.node[98].wlan[0].mac 	rcvdPkFromLL:count 	490137
attr interpolationmode  none
attr source  packetReceivedFromLower
attr title  "packets received from lower layer, count"
scalar scenarioPRJP1.node[98].wlan[0].mac 	rcvdPkFromLL:sum(packetBytes) 	73573246
attr interpolationmode  none
attr source  packetReceivedFromLower
attr title  "packets received from lower layer, sum(packetBytes)"
scalar scenarioPRJP1.node[98].wlan[0].mac 	sentDownPk:count 	66356
attr interpolationmode  none
attr source  packetSentToLower
attr title  "packets sent to lower layer, count"
scalar scenarioPRJP1.node[98].wlan[0].mac 	sentDownPk:sum(packetBytes) 	10208452
attr interpolationmode  none
attr source  packetSentToLower
attr title  "packets sent to lower layer, sum(packetBytes)"
scalar scenarioPRJP1.node[98].wlan[0].mac 	rcvdPkFromHL:count 	49293
attr interpolationmode  none
attr source  packetReceivedFromUpper
attr title  "packets received from higher layer, count"
scalar scenarioPRJP1.node[98].wlan[0].mac 	rcvdPkFromHL:sum(packetBytes) 	6249820
attr interpolationmode  none
attr source  packetReceivedFromUpper
attr title  "packets received from higher layer, sum(packetBytes)"
scalar scenarioPRJP1.node[98].wlan[0].mac 	passedUpPk:count 	223316
attr interpolationmode  none
attr source  packetSentToUpper
attr title  "packets passed to higher layer, count"
scalar scenarioPRJP1.node[98].wlan[0].mac 	passedUpPk:sum(packetBytes) 	21128872
attr interpolationmode  none
attr source  packetSentToUpper
attr title  "packets passed to higher layer, sum(packetBytes)"
statistic scenarioPRJP1.node[98].wlan[0].radio 	radioChannel:histogram
field count 1
field mean 3
field stddev -nan
field sum 3
field sqrsum 9
field min 3
field max 3
attr interpolationmode  sample-hold
attr source  radioChannelChanged
attr title  "Radio channel, histogram"
bin	-INF	0
bin	2	0
bin	3	1
bin	4	0
scalar scenarioPRJP1.node[98].wlan[0].radio 	transmissionState:count 	265424
attr interpolationmode  sample-hold
attr source  transmissionStateChanged
attr title  "Radio transmission state, count"
scalar scenarioPRJP1.node[98].wlan[0].radio 	receptionState:count 	1800148
attr interpolationmode  sample-hold
attr source  receptionStateChanged
attr title  "Radio reception state, count"
scalar scenarioPRJP1.node[98].wlan[0].radio 	radioMode:count 	132714
attr interpolationmode  sample-hold
attr source  radioModeChanged
attr title  "Radio mode, count"
statistic scenarioPRJP1.node[98].wlan[0].radio 	symbolErrorRate:histogram
field count 0
field mean -nan
field stddev -nan
field sum 0
field sqrsum 0
field min -nan
field max -nan
attr source  symbolErrorRate
attr title  "Symbol error rate, histogram"
bin	-INF	0
bin	-0.5	0
bin	-0.46666666666667	0
bin	-0.43333333333333	0
bin	-0.4	0
bin	-0.36666666666667	0
bin	-0.33333333333333	0
bin	-0.3	0
bin	-0.26666666666667	0
bin	-0.23333333333333	0
bin	-0.2	0
bin	-0.16666666666667	0
bin	-0.13333333333333	0
bin	-0.1	0
bin	-0.066666666666667	0
bin	-0.033333333333333	0
bin	0	0
bin	0.033333333333333	0
bin	0.066666666666667	0
bin	0.1	0
bin	0.13333333333333	0
bin	0.16666666666667	0
bin	0.2	0
bin	0.23333333333333	0
bin	0.26666666666667	0
bin	0.3	0
bin	0.33333333333333	0
bin	0.36666666666667	0
bin	0.4	0
bin	0.43333333333333	0
bin	0.46666666666667	0
bin	0.5	0
statistic scenarioPRJP1.node[98].wlan[0].radio 	bitErrorRate:histogram
field count 0
field mean -nan
field stddev -nan
field sum 0
field sqrsum 0
field min -nan
field max -nan
attr source  bitErrorRate
attr title  "Bit error rate, histogram"
bin	-INF	0
bin	-0.5	0
bin	-0.46666666666667	0
bin	-0.43333333333333	0
bin	-0.4	0
bin	-0.36666666666667	0
bin	-0.33333333333333	0
bin	-0.3	0
bin	-0.26666666666667	0
bin	-0.23333333333333	0
bin	-0.2	0
bin	-0.16666666666667	0
bin	-0.13333333333333	0
bin	-0.1	0
bin	-0.066666666666667	0
bin	-0.033333333333333	0
bin	0	0
bin	0.033333333333333	0
bin	0.066666666666667	0
bin	0.1	0
bin	0.13333333333333	0
bin	0.16666666666667	0
bin	0.2	0
bin	0.23333333333333	0
bin	0.26666666666667	0
bin	0.3	0
bin	0.33333333333333	0
bin	0.36666666666667	0
bin	0.4	0
bin	0.43333333333333	0
bin	0.46666666666667	0
bin	0.5	0
statistic scenarioPRJP1.node[98].wlan[0].radio 	packetErrorRate:histogram
field count 490137
field mean 0.13706257737471
field stddev 0.33419191540806
field sum 67179.440486707
field sqrsum 63948.252114651
field min 0
field max 1
attr source  packetErrorRate
attr title  "Packet error rate, histogram"
bin	-INF	0
bin	-0.5	0
bin	-0.43333333333333	0
bin	-0.36666666666667	0
bin	-0.3	0
bin	-0.23333333333333	0
bin	-0.16666666666667	0
bin	-0.1	0
bin	-0.033333333333333	409471
bin	0.033333333333333	5556
bin	0.1	2715
bin	0.16666666666667	1865
bin	0.23333333333333	1355
bin	0.3	1193
bin	0.36666666666667	953
bin	0.43333333333333	928
bin	0.5	884
bin	0.56666666666667	836
bin	0.63333333333333	825
bin	0.7	879
bin	0.76666666666667	920
bin	0.83333333333333	1059
bin	0.9	1612
bin	0.96666666666667	59086
bin	1.0333333333333	0
bin	1.1	0
bin	1.1666666666667	0
bin	1.2333333333333	0
bin	1.3	0
bin	1.3666666666667	0
bin	1.4333333333333	0
bin	1.5	0
statistic scenarioPRJP1.node[98].wlan[0].radio 	minSNIR:histogram
field count 490137
field mean 56007.56840164
field stddev 557458.75443869
field sum 27451381553.674
field sqrsum 1.5385227734701e+17
field min 0.00010700498179159
field max 75417679.191174
attr source  minSNIR
attr title  "Min SNIR, histogram"
bin	-INF	0
bin	-1271.7100104211	0
bin	-1102.0590916339	0
bin	-932.40817284659	0
bin	-762.75725405931	0
bin	-593.10633527203	0
bin	-423.45541648474	0
bin	-253.80449769746	0
bin	-84.153578910184	305130
bin	85.497339877096	23848
bin	255.14825866438	24601
bin	424.79917745166	18648
bin	594.45009623894	11154
bin	764.10101502622	8968
bin	933.7519338135	6054
bin	1103.4028526008	4878
bin	1273.0537713881	3695
bin	1442.7046901753	3343
bin	1612.3556089626	2783
bin	1782.0065277499	2428
bin	1951.6574465372	2262
bin	2121.3083653245	2020
bin	2290.9592841117	1971
bin	2460.610202899	1847
bin	2630.2611216863	1513
bin	2799.9120404736	1408
bin	2969.5629592609	1262
bin	3139.2138780481	1129
bin	3308.8647968354	975
bin	3478.5157156227	962
bin	3648.16663441	832
bin	3817.8175531973	58426
scalar scenarioPRJP1.node[98].lo0.lo 	droppedPkBitError:count 	0
attr interpolationmode  none
attr source  dropPkBitError
attr title  "packets dropped/bit error, count"
scalar scenarioPRJP1.node[98].lo0.lo 	droppedPkBitError:sum(packetBytes) 	0
attr interpolationmode  none
attr source  dropPkBitError
attr title  "packets dropped/bit error, sum(packetBytes)"
scalar scenarioPRJP1.node[98].lo0.lo 	rcvdPkFromHL:count 	1
attr interpolationmode  none
attr source  packetReceivedFromUpper
attr title  "packets received from higher layer, count"
scalar scenarioPRJP1.node[98].lo0.lo 	rcvdPkFromHL:sum(packetBytes) 	56
attr interpolationmode  none
attr source  packetReceivedFromUpper
attr title  "packets received from higher layer, sum(packetBytes)"
scalar scenarioPRJP1.node[98].lo0.lo 	passedUpPk:count 	1
attr interpolationmode  none
attr source  packetSentToUpper
attr title  "packets passed to higher layer, count"
scalar scenarioPRJP1.node[98].lo0.lo 	passedUpPk:sum(packetBytes) 	56
attr interpolationmode  none
attr source  packetSentToUpper
attr title  "packets passed to higher layer, sum(packetBytes)"
