version 2
run AODVRouting-FS-100n-11-20150621-21:18:42-2571
attr configname AODVRouting-FS-100n
attr datetime 20150621-21:18:42
attr experiment AODVRouting-FS-100n
attr inifile omnetpp.ini
attr iterationvars ""
attr iterationvars2 $repetition=11
attr measurement ""
attr network Prj_Part1_propag.scenarioPRJP1
attr processid 2571
attr repetition 11
attr replication #11
attr resultdir results
attr runnumber 11
attr seedset 11

scalar scenarioPRJP1.node[59].app 	"Total sent" 	365
scalar scenarioPRJP1.node[59].app 	"Total received" 	35
scalar scenarioPRJP1.node[59].app 	"Total deleted" 	3
scalar scenarioPRJP1.node[59].app 	dropPk:count 	3
attr interpolationmode  none
attr source  dropPk
attr title  "packets dropped, count"
scalar scenarioPRJP1.node[59].app 	dropPk:sum(packetBytes) 	1536
attr interpolationmode  none
attr source  dropPk
attr title  "packets dropped, sum(packetBytes)"
scalar scenarioPRJP1.node[59].app 	outOfOrderPk:count 	0
attr interpolationmode  none
attr source  outOfOrderPk
attr title  "packets received out of order, count"
scalar scenarioPRJP1.node[59].app 	outOfOrderPk:sum(packetBytes) 	0
attr interpolationmode  none
attr source  outOfOrderPk
attr title  "packets received out of order, sum(packetBytes)"
scalar scenarioPRJP1.node[59].app 	rcvdPk:count 	35
attr interpolationmode  none
attr source  rcvdPk
attr title  "packets received, count"
scalar scenarioPRJP1.node[59].app 	rcvdPk:sum(packetBytes) 	17920
attr interpolationmode  none
attr source  rcvdPk
attr title  "packets received, sum(packetBytes)"
statistic scenarioPRJP1.node[59].app 	endToEndDelay:histogram
field count 35
field mean 0.22053670031011
field stddev 0.67748870016056
field sum 7.718784510854
field sqrsum 17.307967187167
field min 0.00089145575
field max 3.783483826293
attr interpolationmode  none
attr source  messageAge(rcvdPk)
attr title  "delay, histogram"
attr unit  s
bin	-INF	0
bin	-1.8904047295215	0
bin	-1.6382319048186	0
bin	-1.3860590801158	0
bin	-1.1338862554129	0
bin	-0.88171343071003	0
bin	-0.62954060600717	0
bin	-0.3773677813043	0
bin	-0.12519495660143	29
bin	0.12697786810143	2
bin	0.3791506928043	0
bin	0.63132351750717	1
bin	0.88349634221003	2
bin	1.1356691669129	0
bin	1.3878419916158	0
bin	1.6400148163186	0
bin	1.8921876410215	0
bin	2.1443604657244	0
bin	2.3965332904272	0
bin	2.6487061151301	0
bin	2.900878939833	0
bin	3.1530517645358	0
bin	3.4052245892387	0
bin	3.6573974139416	1
bin	3.9095702386444	0
bin	4.1617430633473	0
bin	4.4139158880502	0
bin	4.666088712753	0
bin	4.9182615374559	0
bin	5.1704343621588	0
bin	5.4226071868616	0
bin	5.6747800115645	0
scalar scenarioPRJP1.node[59].app 	sentPk:count 	365
attr interpolationmode  none
attr source  sentPk
attr title  "packets sent, count"
scalar scenarioPRJP1.node[59].app 	sentPk:sum(packetBytes) 	186880
attr interpolationmode  none
attr source  sentPk
attr title  "packets sent, sum(packetBytes)"
scalar scenarioPRJP1.node[59].udp 	droppedPkBadChecksum:count 	0
attr interpolationmode  none
attr title  "packets dropped (checksum error), count"
scalar scenarioPRJP1.node[59].udp 	droppedPkWrongPort:count 	0
attr interpolationmode  none
attr title  "packets dropped (wrong port), count"
scalar scenarioPRJP1.node[59].udp 	passedUpPk:count 	38
attr interpolationmode  none
attr title  "packets passed up, count"
scalar scenarioPRJP1.node[59].udp 	rcvdPk:count 	38
attr interpolationmode  none
attr source  rcvdPk
attr title  "packets received, count"
scalar scenarioPRJP1.node[59].udp 	rcvdPk:sum(packetBytes) 	19760
attr interpolationmode  none
attr source  rcvdPk
attr title  "packets received, sum(packetBytes)"
scalar scenarioPRJP1.node[59].udp 	sentPk:count 	365
attr interpolationmode  none
attr source  sentPk
attr title  "packets sent, count"
scalar scenarioPRJP1.node[59].udp 	sentPk:sum(packetBytes) 	189800
attr interpolationmode  none
attr source  sentPk
attr title  "packets sent, sum(packetBytes)"
scalar scenarioPRJP1.node[59].networkLayer.arp 	failedARPResolution:count 	1
attr title  "ARP failed resolutions, count"
scalar scenarioPRJP1.node[59].networkLayer.arp 	completedARPResolution:count 	133
attr title  "ARP completed resolutions, count"
scalar scenarioPRJP1.node[59].networkLayer.arp 	initiatedARPResolution:count 	17
attr title  "ARP initiated resolutions, count"
scalar scenarioPRJP1.node[59].networkLayer.arp 	sentReply:count 	10
attr title  "ARP replies sent, count"
scalar scenarioPRJP1.node[59].networkLayer.arp 	sentReq:count 	21
attr title  "ARP request sent, count"
scalar scenarioPRJP1.node[59].mobility 	startTime 	5
scalar scenarioPRJP1.node[59].mobility 	totalTime 	152.4
scalar scenarioPRJP1.node[59].mobility 	stopTime 	157.5
scalar scenarioPRJP1.node[59].mobility 	minSpeed 	2.4767547900244e-13
scalar scenarioPRJP1.node[59].mobility 	maxSpeed 	20.735121054953
scalar scenarioPRJP1.node[59].mobility 	totalDistance 	1448.7389182281
scalar scenarioPRJP1.node[59].mobility 	totalCO2Emission 	437.54414387862
scalar scenarioPRJP1.node[59].wlan[0].mgmt 	dataQueueLen:max 	6
attr interpolationmode  sample-hold
attr title  "data queue length, max"
scalar scenarioPRJP1.node[59].wlan[0].mgmt 	dataQueueLen:timeavg 	0
attr interpolationmode  sample-hold
attr title  "data queue length, timeavg"
scalar scenarioPRJP1.node[59].wlan[0].mgmt 	dropPkByQueue:count 	0
attr interpolationmode  none
attr source  dropPkByQueue
attr title  "packets dropped by queue, count"
scalar scenarioPRJP1.node[59].wlan[0].mgmt 	dropPkByQueue:sum(packetBytes) 	0
attr interpolationmode  none
attr source  dropPkByQueue
attr title  "packets dropped by queue, sum(packetBytes)"
scalar scenarioPRJP1.node[59].wlan[0].mac 	"number of received packets" 	165
scalar scenarioPRJP1.node[59].wlan[0].mac 	"number of collisions" 	2803
scalar scenarioPRJP1.node[59].wlan[0].mac 	"number of internal collisions" 	0
scalar scenarioPRJP1.node[59].wlan[0].mac 	"number of retry for AC 0" 	237
scalar scenarioPRJP1.node[59].wlan[0].mac 	"number of retry for AC 1" 	0
scalar scenarioPRJP1.node[59].wlan[0].mac 	"number of retry for AC 2" 	0
scalar scenarioPRJP1.node[59].wlan[0].mac 	"number of retry for AC 3" 	0
scalar scenarioPRJP1.node[59].wlan[0].mac 	"sent and received bits" 	1849024
scalar scenarioPRJP1.node[59].wlan[0].mac 	"sent packet within AC 0" 	163
scalar scenarioPRJP1.node[59].wlan[0].mac 	"sent packet within AC 1" 	0
scalar scenarioPRJP1.node[59].wlan[0].mac 	"sent packet within AC 2" 	0
scalar scenarioPRJP1.node[59].wlan[0].mac 	"sent packet within AC 3" 	0
scalar scenarioPRJP1.node[59].wlan[0].mac 	"sent in TXOP " 	0
scalar scenarioPRJP1.node[59].wlan[0].mac 	"sentWithoutRetry AC 0" 	124
scalar scenarioPRJP1.node[59].wlan[0].mac 	"sentWithoutRetry AC 1" 	0
scalar scenarioPRJP1.node[59].wlan[0].mac 	"sentWithoutRetry AC 2" 	0
scalar scenarioPRJP1.node[59].wlan[0].mac 	"sentWithoutRetry AC 3" 	0
scalar scenarioPRJP1.node[59].wlan[0].mac 	"numGivenUp AC 0" 	20
scalar scenarioPRJP1.node[59].wlan[0].mac 	"numGivenUp AC 1" 	0
scalar scenarioPRJP1.node[59].wlan[0].mac 	"numGivenUp AC 2" 	0
scalar scenarioPRJP1.node[59].wlan[0].mac 	"numGivenUp AC 3" 	0
scalar scenarioPRJP1.node[59].wlan[0].mac 	"numDropped AC 0" 	0
scalar scenarioPRJP1.node[59].wlan[0].mac 	"numDropped AC 1" 	0
scalar scenarioPRJP1.node[59].wlan[0].mac 	"numDropped AC 2" 	0
scalar scenarioPRJP1.node[59].wlan[0].mac 	"numDropped AC 3" 	0
scalar scenarioPRJP1.node[59].wlan[0].mac 	rcvdPkFromLL:count 	19121
attr interpolationmode  none
attr source  packetReceivedFromLower
attr title  "packets received from lower layer, count"
scalar scenarioPRJP1.node[59].wlan[0].mac 	rcvdPkFromLL:sum(packetBytes) 	2882952
attr interpolationmode  none
attr source  packetReceivedFromLower
attr title  "packets received from lower layer, sum(packetBytes)"
scalar scenarioPRJP1.node[59].wlan[0].mac 	sentDownPk:count 	2470
attr interpolationmode  none
attr source  packetSentToLower
attr title  "packets sent to lower layer, count"
scalar scenarioPRJP1.node[59].wlan[0].mac 	sentDownPk:sum(packetBytes) 	357342
attr interpolationmode  none
attr source  packetSentToLower
attr title  "packets sent to lower layer, sum(packetBytes)"
scalar scenarioPRJP1.node[59].wlan[0].mac 	rcvdPkFromHL:count 	2068
attr interpolationmode  none
attr source  packetReceivedFromUpper
attr title  "packets received from higher layer, count"
scalar scenarioPRJP1.node[59].wlan[0].mac 	rcvdPkFromHL:sum(packetBytes) 	241664
attr interpolationmode  none
attr source  packetReceivedFromUpper
attr title  "packets received from higher layer, sum(packetBytes)"
scalar scenarioPRJP1.node[59].wlan[0].mac 	passedUpPk:count 	11797
attr interpolationmode  none
attr source  packetSentToUpper
attr title  "packets passed to higher layer, count"
scalar scenarioPRJP1.node[59].wlan[0].mac 	passedUpPk:sum(packetBytes) 	1080912
attr interpolationmode  none
attr source  packetSentToUpper
attr title  "packets passed to higher layer, sum(packetBytes)"
statistic scenarioPRJP1.node[59].wlan[0].radio 	radioChannel:histogram
field count 1
field mean 3
field stddev -nan
field sum 3
field sqrsum 9
field min 3
field max 3
attr interpolationmode  sample-hold
attr source  radioChannelChanged
attr title  "Radio channel, histogram"
bin	-INF	0
bin	2	0
bin	3	1
bin	4	0
scalar scenarioPRJP1.node[59].wlan[0].radio 	transmissionState:count 	9880
attr interpolationmode  sample-hold
attr source  transmissionStateChanged
attr title  "Radio transmission state, count"
scalar scenarioPRJP1.node[59].wlan[0].radio 	receptionState:count 	84924
attr interpolationmode  sample-hold
attr source  receptionStateChanged
attr title  "Radio reception state, count"
scalar scenarioPRJP1.node[59].wlan[0].radio 	radioMode:count 	4942
attr interpolationmode  sample-hold
attr source  radioModeChanged
attr title  "Radio mode, count"
statistic scenarioPRJP1.node[59].wlan[0].radio 	symbolErrorRate:histogram
field count 0
field mean -nan
field stddev -nan
field sum 0
field sqrsum 0
field min -nan
field max -nan
attr source  symbolErrorRate
attr title  "Symbol error rate, histogram"
bin	-INF	0
bin	-0.5	0
bin	-0.46666666666667	0
bin	-0.43333333333333	0
bin	-0.4	0
bin	-0.36666666666667	0
bin	-0.33333333333333	0
bin	-0.3	0
bin	-0.26666666666667	0
bin	-0.23333333333333	0
bin	-0.2	0
bin	-0.16666666666667	0
bin	-0.13333333333333	0
bin	-0.1	0
bin	-0.066666666666667	0
bin	-0.033333333333333	0
bin	0	0
bin	0.033333333333333	0
bin	0.066666666666667	0
bin	0.1	0
bin	0.13333333333333	0
bin	0.16666666666667	0
bin	0.2	0
bin	0.23333333333333	0
bin	0.26666666666667	0
bin	0.3	0
bin	0.33333333333333	0
bin	0.36666666666667	0
bin	0.4	0
bin	0.43333333333333	0
bin	0.46666666666667	0
bin	0.5	0
statistic scenarioPRJP1.node[59].wlan[0].radio 	bitErrorRate:histogram
field count 0
field mean -nan
field stddev -nan
field sum 0
field sqrsum 0
field min -nan
field max -nan
attr source  bitErrorRate
attr title  "Bit error rate, histogram"
bin	-INF	0
bin	-0.5	0
bin	-0.46666666666667	0
bin	-0.43333333333333	0
bin	-0.4	0
bin	-0.36666666666667	0
bin	-0.33333333333333	0
bin	-0.3	0
bin	-0.26666666666667	0
bin	-0.23333333333333	0
bin	-0.2	0
bin	-0.16666666666667	0
bin	-0.13333333333333	0
bin	-0.1	0
bin	-0.066666666666667	0
bin	-0.033333333333333	0
bin	0	0
bin	0.033333333333333	0
bin	0.066666666666667	0
bin	0.1	0
bin	0.13333333333333	0
bin	0.16666666666667	0
bin	0.2	0
bin	0.23333333333333	0
bin	0.26666666666667	0
bin	0.3	0
bin	0.33333333333333	0
bin	0.36666666666667	0
bin	0.4	0
bin	0.43333333333333	0
bin	0.46666666666667	0
bin	0.5	0
statistic scenarioPRJP1.node[59].wlan[0].radio 	packetErrorRate:histogram
field count 19121
field mean 0.11322177399568
field stddev 0.30679664656646
field sum 2164.9135405714
field sqrsum 2044.7697180362
field min 0
field max 1
attr source  packetErrorRate
attr title  "Packet error rate, histogram"
bin	-INF	0
bin	-0.5	0
bin	-0.43333333333333	0
bin	-0.36666666666667	0
bin	-0.3	0
bin	-0.23333333333333	0
bin	-0.16666666666667	0
bin	-0.1	0
bin	-0.033333333333333	16452
bin	0.033333333333333	210
bin	0.1	110
bin	0.16666666666667	56
bin	0.23333333333333	53
bin	0.3	45
bin	0.36666666666667	30
bin	0.43333333333333	41
bin	0.5	30
bin	0.56666666666667	34
bin	0.63333333333333	32
bin	0.7	28
bin	0.76666666666667	39
bin	0.83333333333333	34
bin	0.9	61
bin	0.96666666666667	1866
bin	1.0333333333333	0
bin	1.1	0
bin	1.1666666666667	0
bin	1.2333333333333	0
bin	1.3	0
bin	1.3666666666667	0
bin	1.4333333333333	0
bin	1.5	0
statistic scenarioPRJP1.node[59].wlan[0].radio 	minSNIR:histogram
field count 19121
field mean 9225.9496673737
field stddev 74619.33318004
field sum 176409383.58985
field sqrsum 1.080885622804e+14
field min 0.00082607367741892
field max 3009458.0850434
attr source  minSNIR
attr title  "Min SNIR, histogram"
bin	-INF	0
bin	-4152.7299512082	0
bin	-3598.9101469243	0
bin	-3045.0903426403	0
bin	-2491.2705383564	0
bin	-1937.4507340725	0
bin	-1383.6309297886	0
bin	-829.81112550467	0
bin	-275.99132122075	13234
bin	277.82848306317	2221
bin	831.64828734708	662
bin	1385.468091631	401
bin	1939.2878959149	411
bin	2493.1077001988	297
bin	3046.9275044828	208
bin	3600.7473087667	193
bin	4154.5671130506	98
bin	4708.3869173345	83
bin	5262.2067216184	85
bin	5816.0265259023	72
bin	6369.8463301863	52
bin	6923.6661344702	40
bin	7477.4859387541	44
bin	8031.305743038	39
bin	8585.1255473219	34
bin	9138.9453516058	20
bin	9692.7651558898	19
bin	10246.584960174	21
bin	10800.404764458	15
bin	11354.224568742	31
bin	11908.044373025	29
bin	12461.864177309	812
scalar scenarioPRJP1.node[59].lo0.lo 	droppedPkBitError:count 	0
attr interpolationmode  none
attr source  dropPkBitError
attr title  "packets dropped/bit error, count"
scalar scenarioPRJP1.node[59].lo0.lo 	droppedPkBitError:sum(packetBytes) 	0
attr interpolationmode  none
attr source  dropPkBitError
attr title  "packets dropped/bit error, sum(packetBytes)"
scalar scenarioPRJP1.node[59].lo0.lo 	rcvdPkFromHL:count 	0
attr interpolationmode  none
attr source  packetReceivedFromUpper
attr title  "packets received from higher layer, count"
scalar scenarioPRJP1.node[59].lo0.lo 	rcvdPkFromHL:sum(packetBytes) 	0
attr interpolationmode  none
attr source  packetReceivedFromUpper
attr title  "packets received from higher layer, sum(packetBytes)"
scalar scenarioPRJP1.node[59].lo0.lo 	passedUpPk:count 	0
attr interpolationmode  none
attr source  packetSentToUpper
attr title  "packets passed to higher layer, count"
scalar scenarioPRJP1.node[59].lo0.lo 	passedUpPk:sum(packetBytes) 	0
attr interpolationmode  none
attr source  packetSentToUpper
attr title  "packets passed to higher layer, sum(packetBytes)"
scalar scenarioPRJP1.node[88].app 	"Total sent" 	363
scalar scenarioPRJP1.node[88].app 	"Total received" 	39
scalar scenarioPRJP1.node[88].app 	"Total deleted" 	6
scalar scenarioPRJP1.node[88].app 	dropPk:count 	6
attr interpolationmode  none
attr source  dropPk
attr title  "packets dropped, count"
scalar scenarioPRJP1.node[88].app 	dropPk:sum(packetBytes) 	3072
attr interpolationmode  none
attr source  dropPk
attr title  "packets dropped, sum(packetBytes)"
scalar scenarioPRJP1.node[88].app 	outOfOrderPk:count 	0
attr interpolationmode  none
attr source  outOfOrderPk
attr title  "packets received out of order, count"
scalar scenarioPRJP1.node[88].app 	outOfOrderPk:sum(packetBytes) 	0
attr interpolationmode  none
attr source  outOfOrderPk
attr title  "packets received out of order, sum(packetBytes)"
scalar scenarioPRJP1.node[88].app 	rcvdPk:count 	39
attr interpolationmode  none
attr source  rcvdPk
attr title  "packets received, count"
scalar scenarioPRJP1.node[88].app 	rcvdPk:sum(packetBytes) 	19968
attr interpolationmode  none
attr source  rcvdPk
attr title  "packets received, sum(packetBytes)"
statistic scenarioPRJP1.node[88].app 	endToEndDelay:histogram
field count 39
field mean 1.3408665878347
field stddev 3.8083167473207
field sum 52.293796925553
field sqrsum 621.24351006958
field min 0.000936011007
field max 16.634167965104
attr interpolationmode  none
attr source  messageAge(rcvdPk)
attr title  "delay, histogram"
attr unit  s
bin	-INF	0
bin	-8.3156799660415	0
bin	-7.2067978357684	0
bin	-6.0979157054952	0
bin	-4.9890335752221	0
bin	-3.880151444949	0
bin	-2.7712693146758	0
bin	-1.6623871844027	0
bin	-0.55350505412957	31
bin	0.55537707614357	3
bin	1.6642592064167	1
bin	2.7731413366898	0
bin	3.882023466963	1
bin	4.9909055972361	0
bin	6.0997877275092	0
bin	7.2086698577824	0
bin	8.3175519880555	0
bin	9.4264341183286	1
bin	10.535316248602	0
bin	11.644198378875	0
bin	12.753080509148	0
bin	13.861962639421	1
bin	14.970844769694	0
bin	16.079726899967	1
bin	17.188609030241	0
bin	18.297491160514	0
bin	19.406373290787	0
bin	20.51525542106	0
bin	21.624137551333	0
bin	22.733019681606	0
bin	23.841901811879	0
bin	24.950783942152	0
scalar scenarioPRJP1.node[88].app 	sentPk:count 	363
attr interpolationmode  none
attr source  sentPk
attr title  "packets sent, count"
scalar scenarioPRJP1.node[88].app 	sentPk:sum(packetBytes) 	185856
attr interpolationmode  none
attr source  sentPk
attr title  "packets sent, sum(packetBytes)"
scalar scenarioPRJP1.node[88].udp 	droppedPkBadChecksum:count 	0
attr interpolationmode  none
attr title  "packets dropped (checksum error), count"
scalar scenarioPRJP1.node[88].udp 	droppedPkWrongPort:count 	0
attr interpolationmode  none
attr title  "packets dropped (wrong port), count"
scalar scenarioPRJP1.node[88].udp 	passedUpPk:count 	45
attr interpolationmode  none
attr title  "packets passed up, count"
scalar scenarioPRJP1.node[88].udp 	rcvdPk:count 	45
attr interpolationmode  none
attr source  rcvdPk
attr title  "packets received, count"
scalar scenarioPRJP1.node[88].udp 	rcvdPk:sum(packetBytes) 	23400
attr interpolationmode  none
attr source  rcvdPk
attr title  "packets received, sum(packetBytes)"
scalar scenarioPRJP1.node[88].udp 	sentPk:count 	363
attr interpolationmode  none
attr source  sentPk
attr title  "packets sent, count"
scalar scenarioPRJP1.node[88].udp 	sentPk:sum(packetBytes) 	188760
attr interpolationmode  none
attr source  sentPk
attr title  "packets sent, sum(packetBytes)"
scalar scenarioPRJP1.node[88].networkLayer.arp 	failedARPResolution:count 	0
attr title  "ARP failed resolutions, count"
scalar scenarioPRJP1.node[88].networkLayer.arp 	completedARPResolution:count 	127
attr title  "ARP completed resolutions, count"
scalar scenarioPRJP1.node[88].networkLayer.arp 	initiatedARPResolution:count 	14
attr title  "ARP initiated resolutions, count"
scalar scenarioPRJP1.node[88].networkLayer.arp 	sentReply:count 	12
attr title  "ARP replies sent, count"
scalar scenarioPRJP1.node[88].networkLayer.arp 	sentReq:count 	19
attr title  "ARP request sent, count"
scalar scenarioPRJP1.node[88].mobility 	startTime 	9.7
scalar scenarioPRJP1.node[88].mobility 	totalTime 	148.9
scalar scenarioPRJP1.node[88].mobility 	stopTime 	158.7
scalar scenarioPRJP1.node[88].mobility 	minSpeed 	2.476227987213e-13
scalar scenarioPRJP1.node[88].mobility 	maxSpeed 	19.644908817547
scalar scenarioPRJP1.node[88].mobility 	totalDistance 	1483.6815689361
scalar scenarioPRJP1.node[88].mobility 	totalCO2Emission 	476.24946646046
scalar scenarioPRJP1.node[88].wlan[0].mgmt 	dataQueueLen:max 	1
attr interpolationmode  sample-hold
attr title  "data queue length, max"
scalar scenarioPRJP1.node[88].wlan[0].mgmt 	dataQueueLen:timeavg 	0
attr interpolationmode  sample-hold
attr title  "data queue length, timeavg"
scalar scenarioPRJP1.node[88].wlan[0].mgmt 	dropPkByQueue:count 	0
attr interpolationmode  none
attr source  dropPkByQueue
attr title  "packets dropped by queue, count"
scalar scenarioPRJP1.node[88].wlan[0].mgmt 	dropPkByQueue:sum(packetBytes) 	0
attr interpolationmode  none
attr source  dropPkByQueue
attr title  "packets dropped by queue, sum(packetBytes)"
scalar scenarioPRJP1.node[88].wlan[0].mac 	"number of received packets" 	169
scalar scenarioPRJP1.node[88].wlan[0].mac 	"number of collisions" 	2325
scalar scenarioPRJP1.node[88].wlan[0].mac 	"number of internal collisions" 	0
scalar scenarioPRJP1.node[88].wlan[0].mac 	"number of retry for AC 0" 	306
scalar scenarioPRJP1.node[88].wlan[0].mac 	"number of retry for AC 1" 	0
scalar scenarioPRJP1.node[88].wlan[0].mac 	"number of retry for AC 2" 	0
scalar scenarioPRJP1.node[88].wlan[0].mac 	"number of retry for AC 3" 	0
scalar scenarioPRJP1.node[88].wlan[0].mac 	"sent and received bits" 	1841792
scalar scenarioPRJP1.node[88].wlan[0].mac 	"sent packet within AC 0" 	142
scalar scenarioPRJP1.node[88].wlan[0].mac 	"sent packet within AC 1" 	0
scalar scenarioPRJP1.node[88].wlan[0].mac 	"sent packet within AC 2" 	0
scalar scenarioPRJP1.node[88].wlan[0].mac 	"sent packet within AC 3" 	0
scalar scenarioPRJP1.node[88].wlan[0].mac 	"sent in TXOP " 	0
scalar scenarioPRJP1.node[88].wlan[0].mac 	"sentWithoutRetry AC 0" 	102
scalar scenarioPRJP1.node[88].wlan[0].mac 	"sentWithoutRetry AC 1" 	0
scalar scenarioPRJP1.node[88].wlan[0].mac 	"sentWithoutRetry AC 2" 	0
scalar scenarioPRJP1.node[88].wlan[0].mac 	"sentWithoutRetry AC 3" 	0
scalar scenarioPRJP1.node[88].wlan[0].mac 	"numGivenUp AC 0" 	28
scalar scenarioPRJP1.node[88].wlan[0].mac 	"numGivenUp AC 1" 	0
scalar scenarioPRJP1.node[88].wlan[0].mac 	"numGivenUp AC 2" 	0
scalar scenarioPRJP1.node[88].wlan[0].mac 	"numGivenUp AC 3" 	0
scalar scenarioPRJP1.node[88].wlan[0].mac 	"numDropped AC 0" 	0
scalar scenarioPRJP1.node[88].wlan[0].mac 	"numDropped AC 1" 	0
scalar scenarioPRJP1.node[88].wlan[0].mac 	"numDropped AC 2" 	0
scalar scenarioPRJP1.node[88].wlan[0].mac 	"numDropped AC 3" 	0
scalar scenarioPRJP1.node[88].wlan[0].mac 	rcvdPkFromLL:count 	18959
attr interpolationmode  none
attr source  packetReceivedFromLower
attr title  "packets received from lower layer, count"
scalar scenarioPRJP1.node[88].wlan[0].mac 	rcvdPkFromLL:sum(packetBytes) 	2907862
attr interpolationmode  none
attr source  packetReceivedFromLower
attr title  "packets received from lower layer, sum(packetBytes)"
scalar scenarioPRJP1.node[88].wlan[0].mac 	sentDownPk:count 	2683
attr interpolationmode  none
attr source  packetSentToLower
attr title  "packets sent to lower layer, count"
scalar scenarioPRJP1.node[88].wlan[0].mac 	sentDownPk:sum(packetBytes) 	397202
attr interpolationmode  none
attr source  packetSentToLower
attr title  "packets sent to lower layer, sum(packetBytes)"
scalar scenarioPRJP1.node[88].wlan[0].mac 	rcvdPkFromHL:count 	2208
attr interpolationmode  none
attr source  packetReceivedFromUpper
attr title  "packets received from higher layer, count"
scalar scenarioPRJP1.node[88].wlan[0].mac 	rcvdPkFromHL:sum(packetBytes) 	244856
attr interpolationmode  none
attr source  packetReceivedFromUpper
attr title  "packets received from higher layer, sum(packetBytes)"
scalar scenarioPRJP1.node[88].wlan[0].mac 	passedUpPk:count 	12239
attr interpolationmode  none
attr source  packetSentToUpper
attr title  "packets passed to higher layer, count"
scalar scenarioPRJP1.node[88].wlan[0].mac 	passedUpPk:sum(packetBytes) 	1118816
attr interpolationmode  none
attr source  packetSentToUpper
attr title  "packets passed to higher layer, sum(packetBytes)"
statistic scenarioPRJP1.node[88].wlan[0].radio 	radioChannel:histogram
field count 1
field mean 3
field stddev -nan
field sum 3
field sqrsum 9
field min 3
field max 3
attr interpolationmode  sample-hold
attr source  radioChannelChanged
attr title  "Radio channel, histogram"
bin	-INF	0
bin	2	0
bin	3	1
bin	4	0
scalar scenarioPRJP1.node[88].wlan[0].radio 	transmissionState:count 	10732
attr interpolationmode  sample-hold
attr source  transmissionStateChanged
attr title  "Radio transmission state, count"
scalar scenarioPRJP1.node[88].wlan[0].radio 	receptionState:count 	75396
attr interpolationmode  sample-hold
attr source  receptionStateChanged
attr title  "Radio reception state, count"
scalar scenarioPRJP1.node[88].wlan[0].radio 	radioMode:count 	5368
attr interpolationmode  sample-hold
attr source  radioModeChanged
attr title  "Radio mode, count"
statistic scenarioPRJP1.node[88].wlan[0].radio 	symbolErrorRate:histogram
field count 0
field mean -nan
field stddev -nan
field sum 0
field sqrsum 0
field min -nan
field max -nan
attr source  symbolErrorRate
attr title  "Symbol error rate, histogram"
bin	-INF	0
bin	-0.5	0
bin	-0.46666666666667	0
bin	-0.43333333333333	0
bin	-0.4	0
bin	-0.36666666666667	0
bin	-0.33333333333333	0
bin	-0.3	0
bin	-0.26666666666667	0
bin	-0.23333333333333	0
bin	-0.2	0
bin	-0.16666666666667	0
bin	-0.13333333333333	0
bin	-0.1	0
bin	-0.066666666666667	0
bin	-0.033333333333333	0
bin	0	0
bin	0.033333333333333	0
bin	0.066666666666667	0
bin	0.1	0
bin	0.13333333333333	0
bin	0.16666666666667	0
bin	0.2	0
bin	0.23333333333333	0
bin	0.26666666666667	0
bin	0.3	0
bin	0.33333333333333	0
bin	0.36666666666667	0
bin	0.4	0
bin	0.43333333333333	0
bin	0.46666666666667	0
bin	0.5	0
statistic scenarioPRJP1.node[88].wlan[0].radio 	bitErrorRate:histogram
field count 0
field mean -nan
field stddev -nan
field sum 0
field sqrsum 0
field min -nan
field max -nan
attr source  bitErrorRate
attr title  "Bit error rate, histogram"
bin	-INF	0
bin	-0.5	0
bin	-0.46666666666667	0
bin	-0.43333333333333	0
bin	-0.4	0
bin	-0.36666666666667	0
bin	-0.33333333333333	0
bin	-0.3	0
bin	-0.26666666666667	0
bin	-0.23333333333333	0
bin	-0.2	0
bin	-0.16666666666667	0
bin	-0.13333333333333	0
bin	-0.1	0
bin	-0.066666666666667	0
bin	-0.033333333333333	0
bin	0	0
bin	0.033333333333333	0
bin	0.066666666666667	0
bin	0.1	0
bin	0.13333333333333	0
bin	0.16666666666667	0
bin	0.2	0
bin	0.23333333333333	0
bin	0.26666666666667	0
bin	0.3	0
bin	0.33333333333333	0
bin	0.36666666666667	0
bin	0.4	0
bin	0.43333333333333	0
bin	0.46666666666667	0
bin	0.5	0
statistic scenarioPRJP1.node[88].wlan[0].radio 	packetErrorRate:histogram
field count 18959
field mean 0.096005318425128
field stddev 0.28450915243647
field sum 1820.164832022
field sqrsum 1709.3094936383
field min 0
field max 1
attr source  packetErrorRate
attr title  "Packet error rate, histogram"
bin	-INF	0
bin	-0.5	0
bin	-0.43333333333333	0
bin	-0.36666666666667	0
bin	-0.3	0
bin	-0.23333333333333	0
bin	-0.16666666666667	0
bin	-0.1	0
bin	-0.033333333333333	16663
bin	0.033333333333333	209
bin	0.1	90
bin	0.16666666666667	57
bin	0.23333333333333	52
bin	0.3	52
bin	0.36666666666667	29
bin	0.43333333333333	27
bin	0.5	21
bin	0.56666666666667	34
bin	0.63333333333333	39
bin	0.7	20
bin	0.76666666666667	31
bin	0.83333333333333	37
bin	0.9	51
bin	0.96666666666667	1547
bin	1.0333333333333	0
bin	1.1	0
bin	1.1666666666667	0
bin	1.2333333333333	0
bin	1.3	0
bin	1.3666666666667	0
bin	1.4333333333333	0
bin	1.5	0
statistic scenarioPRJP1.node[88].wlan[0].radio 	minSNIR:histogram
field count 18959
field mean 42315.485617038
field stddev 305199.05689723
field sum 802259291.81343
field sqrsum 1.7998186623101e+15
field min 0.00017904285671346
field max 3012958.8769377
attr source  minSNIR
attr title  "Min SNIR, histogram"
bin	-INF	0
bin	-18933.037826731	0
bin	-16408.627359254	0
bin	-13884.216891778	0
bin	-11359.806424301	0
bin	-8835.3959568249	0
bin	-6310.9854893485	0
bin	-3786.575021872	0
bin	-1262.1645543956	14572
bin	1262.2459130808	1513
bin	3786.6563805572	568
bin	6311.0668480337	313
bin	8835.4773155101	297
bin	11359.887782987	230
bin	13884.298250463	190
bin	16408.708717939	120
bin	18933.119185416	99
bin	21457.529652892	68
bin	23981.940120369	61
bin	26506.350587845	60
bin	29030.761055322	27
bin	31555.171522798	28
bin	34079.581990274	29
bin	36603.992457751	16
bin	39128.402925227	21
bin	41652.813392704	12
bin	44177.22386018	7
bin	46701.634327657	10
bin	49226.044795133	16
bin	51750.455262609	21
bin	54274.865730086	10
bin	56799.276197562	671
scalar scenarioPRJP1.node[88].lo0.lo 	droppedPkBitError:count 	0
attr interpolationmode  none
attr source  dropPkBitError
attr title  "packets dropped/bit error, count"
scalar scenarioPRJP1.node[88].lo0.lo 	droppedPkBitError:sum(packetBytes) 	0
attr interpolationmode  none
attr source  dropPkBitError
attr title  "packets dropped/bit error, sum(packetBytes)"
scalar scenarioPRJP1.node[88].lo0.lo 	rcvdPkFromHL:count 	0
attr interpolationmode  none
attr source  packetReceivedFromUpper
attr title  "packets received from higher layer, count"
scalar scenarioPRJP1.node[88].lo0.lo 	rcvdPkFromHL:sum(packetBytes) 	0
attr interpolationmode  none
attr source  packetReceivedFromUpper
attr title  "packets received from higher layer, sum(packetBytes)"
scalar scenarioPRJP1.node[88].lo0.lo 	passedUpPk:count 	0
attr interpolationmode  none
attr source  packetSentToUpper
attr title  "packets passed to higher layer, count"
scalar scenarioPRJP1.node[88].lo0.lo 	passedUpPk:sum(packetBytes) 	0
attr interpolationmode  none
attr source  packetSentToUpper
attr title  "packets passed to higher layer, sum(packetBytes)"
scalar scenarioPRJP1.node[58].app 	"Total sent" 	374
scalar scenarioPRJP1.node[58].app 	"Total received" 	41
scalar scenarioPRJP1.node[58].app 	"Total deleted" 	4
scalar scenarioPRJP1.node[58].app 	dropPk:count 	4
attr interpolationmode  none
attr source  dropPk
attr title  "packets dropped, count"
scalar scenarioPRJP1.node[58].app 	dropPk:sum(packetBytes) 	2048
attr interpolationmode  none
attr source  dropPk
attr title  "packets dropped, sum(packetBytes)"
scalar scenarioPRJP1.node[58].app 	outOfOrderPk:count 	1
attr interpolationmode  none
attr source  outOfOrderPk
attr title  "packets received out of order, count"
scalar scenarioPRJP1.node[58].app 	outOfOrderPk:sum(packetBytes) 	512
attr interpolationmode  none
attr source  outOfOrderPk
attr title  "packets received out of order, sum(packetBytes)"
scalar scenarioPRJP1.node[58].app 	rcvdPk:count 	41
attr interpolationmode  none
attr source  rcvdPk
attr title  "packets received, count"
scalar scenarioPRJP1.node[58].app 	rcvdPk:sum(packetBytes) 	20992
attr interpolationmode  none
attr source  rcvdPk
attr title  "packets received, sum(packetBytes)"
statistic scenarioPRJP1.node[58].app 	endToEndDelay:histogram
field count 41
field mean 1.4599874856461
field stddev 3.8152096532044
field sum 59.859486911489
field sqrsum 669.62708970414
field min 0.00090034984
field max 14.453482006901
attr interpolationmode  none
attr source  messageAge(rcvdPk)
attr title  "delay, histogram"
attr unit  s
bin	-INF	0
bin	-7.2253904786905	0
bin	-6.2618850348864	0
bin	-5.2983795910824	0
bin	-4.3348741472783	0
bin	-3.3713687034742	0
bin	-2.4078632596702	0
bin	-1.4443578158661	0
bin	-0.48085237206203	34
bin	0.48265307174203	1
bin	1.4461585155461	1
bin	2.4096639593502	0
bin	3.3731694031542	0
bin	4.3366748469583	0
bin	5.3001802907624	0
bin	6.2636857345664	1
bin	7.2271911783705	0
bin	8.1906966221746	0
bin	9.1542020659786	1
bin	10.117707509783	1
bin	11.081212953587	0
bin	12.044718397391	0
bin	13.008223841195	0
bin	13.971729284999	2
bin	14.935234728803	0
bin	15.898740172607	0
bin	16.862245616411	0
bin	17.825751060215	0
bin	18.789256504019	0
bin	19.752761947823	0
bin	20.716267391627	0
bin	21.679772835431	0
scalar scenarioPRJP1.node[58].app 	sentPk:count 	374
attr interpolationmode  none
attr source  sentPk
attr title  "packets sent, count"
scalar scenarioPRJP1.node[58].app 	sentPk:sum(packetBytes) 	191488
attr interpolationmode  none
attr source  sentPk
attr title  "packets sent, sum(packetBytes)"
scalar scenarioPRJP1.node[58].udp 	droppedPkBadChecksum:count 	0
attr interpolationmode  none
attr title  "packets dropped (checksum error), count"
scalar scenarioPRJP1.node[58].udp 	droppedPkWrongPort:count 	0
attr interpolationmode  none
attr title  "packets dropped (wrong port), count"
scalar scenarioPRJP1.node[58].udp 	passedUpPk:count 	46
attr interpolationmode  none
attr title  "packets passed up, count"
scalar scenarioPRJP1.node[58].udp 	rcvdPk:count 	46
attr interpolationmode  none
attr source  rcvdPk
attr title  "packets received, count"
scalar scenarioPRJP1.node[58].udp 	rcvdPk:sum(packetBytes) 	23920
attr interpolationmode  none
attr source  rcvdPk
attr title  "packets received, sum(packetBytes)"
scalar scenarioPRJP1.node[58].udp 	sentPk:count 	374
attr interpolationmode  none
attr source  sentPk
attr title  "packets sent, count"
scalar scenarioPRJP1.node[58].udp 	sentPk:sum(packetBytes) 	194480
attr interpolationmode  none
attr source  sentPk
attr title  "packets sent, sum(packetBytes)"
scalar scenarioPRJP1.node[58].networkLayer.arp 	failedARPResolution:count 	2
attr title  "ARP failed resolutions, count"
scalar scenarioPRJP1.node[58].networkLayer.arp 	completedARPResolution:count 	156
attr title  "ARP completed resolutions, count"
scalar scenarioPRJP1.node[58].networkLayer.arp 	initiatedARPResolution:count 	12
attr title  "ARP initiated resolutions, count"
scalar scenarioPRJP1.node[58].networkLayer.arp 	sentReply:count 	15
attr title  "ARP replies sent, count"
scalar scenarioPRJP1.node[58].networkLayer.arp 	sentReq:count 	17
attr title  "ARP request sent, count"
scalar scenarioPRJP1.node[58].mobility 	startTime 	5
scalar scenarioPRJP1.node[58].mobility 	totalTime 	155.2
scalar scenarioPRJP1.node[58].mobility 	stopTime 	160.3
scalar scenarioPRJP1.node[58].mobility 	minSpeed 	2.4761172481858e-13
scalar scenarioPRJP1.node[58].mobility 	maxSpeed 	17.991768041093
scalar scenarioPRJP1.node[58].mobility 	totalDistance 	1484.5566005175
scalar scenarioPRJP1.node[58].mobility 	totalCO2Emission 	442.7192208049
scalar scenarioPRJP1.node[58].wlan[0].mgmt 	dataQueueLen:max 	2
attr interpolationmode  sample-hold
attr title  "data queue length, max"
scalar scenarioPRJP1.node[58].wlan[0].mgmt 	dataQueueLen:timeavg 	0
attr interpolationmode  sample-hold
attr title  "data queue length, timeavg"
scalar scenarioPRJP1.node[58].wlan[0].mgmt 	dropPkByQueue:count 	0
attr interpolationmode  none
attr source  dropPkByQueue
attr title  "packets dropped by queue, count"
scalar scenarioPRJP1.node[58].wlan[0].mgmt 	dropPkByQueue:sum(packetBytes) 	0
attr interpolationmode  none
attr source  dropPkByQueue
attr title  "packets dropped by queue, sum(packetBytes)"
scalar scenarioPRJP1.node[58].wlan[0].mac 	"number of received packets" 	162
scalar scenarioPRJP1.node[58].wlan[0].mac 	"number of collisions" 	2511
scalar scenarioPRJP1.node[58].wlan[0].mac 	"number of internal collisions" 	0
scalar scenarioPRJP1.node[58].wlan[0].mac 	"number of retry for AC 0" 	256
scalar scenarioPRJP1.node[58].wlan[0].mac 	"number of retry for AC 1" 	0
scalar scenarioPRJP1.node[58].wlan[0].mac 	"number of retry for AC 2" 	0
scalar scenarioPRJP1.node[58].wlan[0].mac 	"number of retry for AC 3" 	0
scalar scenarioPRJP1.node[58].wlan[0].mac 	"sent and received bits" 	2069056
scalar scenarioPRJP1.node[58].wlan[0].mac 	"sent packet within AC 0" 	174
scalar scenarioPRJP1.node[58].wlan[0].mac 	"sent packet within AC 1" 	0
scalar scenarioPRJP1.node[58].wlan[0].mac 	"sent packet within AC 2" 	0
scalar scenarioPRJP1.node[58].wlan[0].mac 	"sent packet within AC 3" 	0
scalar scenarioPRJP1.node[58].wlan[0].mac 	"sent in TXOP " 	0
scalar scenarioPRJP1.node[58].wlan[0].mac 	"sentWithoutRetry AC 0" 	124
scalar scenarioPRJP1.node[58].wlan[0].mac 	"sentWithoutRetry AC 1" 	0
scalar scenarioPRJP1.node[58].wlan[0].mac 	"sentWithoutRetry AC 2" 	0
scalar scenarioPRJP1.node[58].wlan[0].mac 	"sentWithoutRetry AC 3" 	0
scalar scenarioPRJP1.node[58].wlan[0].mac 	"numGivenUp AC 0" 	19
scalar scenarioPRJP1.node[58].wlan[0].mac 	"numGivenUp AC 1" 	0
scalar scenarioPRJP1.node[58].wlan[0].mac 	"numGivenUp AC 2" 	0
scalar scenarioPRJP1.node[58].wlan[0].mac 	"numGivenUp AC 3" 	0
scalar scenarioPRJP1.node[58].wlan[0].mac 	"numDropped AC 0" 	0
scalar scenarioPRJP1.node[58].wlan[0].mac 	"numDropped AC 1" 	0
scalar scenarioPRJP1.node[58].wlan[0].mac 	"numDropped AC 2" 	0
scalar scenarioPRJP1.node[58].wlan[0].mac 	"numDropped AC 3" 	0
scalar scenarioPRJP1.node[58].wlan[0].mac 	rcvdPkFromLL:count 	20534
attr interpolationmode  none
attr source  packetReceivedFromLower
attr title  "packets received from lower layer, count"
scalar scenarioPRJP1.node[58].wlan[0].mac 	rcvdPkFromLL:sum(packetBytes) 	3208270
attr interpolationmode  none
attr source  packetReceivedFromLower
attr title  "packets received from lower layer, sum(packetBytes)"
scalar scenarioPRJP1.node[58].wlan[0].mac 	sentDownPk:count 	2770
attr interpolationmode  none
attr source  packetSentToLower
attr title  "packets sent to lower layer, count"
scalar scenarioPRJP1.node[58].wlan[0].mac 	sentDownPk:sum(packetBytes) 	393004
attr interpolationmode  none
attr source  packetSentToLower
attr title  "packets sent to lower layer, sum(packetBytes)"
scalar scenarioPRJP1.node[58].wlan[0].mac 	rcvdPkFromHL:count 	2352
attr interpolationmode  none
attr source  packetReceivedFromUpper
attr title  "packets received from higher layer, count"
scalar scenarioPRJP1.node[58].wlan[0].mac 	rcvdPkFromHL:sum(packetBytes) 	267588
attr interpolationmode  none
attr source  packetReceivedFromUpper
attr title  "packets received from higher layer, sum(packetBytes)"
scalar scenarioPRJP1.node[58].wlan[0].mac 	passedUpPk:count 	12989
attr interpolationmode  none
attr source  packetSentToUpper
attr title  "packets passed to higher layer, count"
scalar scenarioPRJP1.node[58].wlan[0].mac 	passedUpPk:sum(packetBytes) 	1188532
attr interpolationmode  none
attr source  packetSentToUpper
attr title  "packets passed to higher layer, sum(packetBytes)"
statistic scenarioPRJP1.node[58].wlan[0].radio 	radioChannel:histogram
field count 1
field mean 3
field stddev -nan
field sum 3
field sqrsum 9
field min 3
field max 3
attr interpolationmode  sample-hold
attr source  radioChannelChanged
attr title  "Radio channel, histogram"
bin	-INF	0
bin	2	0
bin	3	1
bin	4	0
scalar scenarioPRJP1.node[58].wlan[0].radio 	transmissionState:count 	11080
attr interpolationmode  sample-hold
attr source  transmissionStateChanged
attr title  "Radio transmission state, count"
scalar scenarioPRJP1.node[58].wlan[0].radio 	receptionState:count 	75460
attr interpolationmode  sample-hold
attr source  receptionStateChanged
attr title  "Radio reception state, count"
scalar scenarioPRJP1.node[58].wlan[0].radio 	radioMode:count 	5542
attr interpolationmode  sample-hold
attr source  radioModeChanged
attr title  "Radio mode, count"
statistic scenarioPRJP1.node[58].wlan[0].radio 	symbolErrorRate:histogram
field count 0
field mean -nan
field stddev -nan
field sum 0
field sqrsum 0
field min -nan
field max -nan
attr source  symbolErrorRate
attr title  "Symbol error rate, histogram"
bin	-INF	0
bin	-0.5	0
bin	-0.46666666666667	0
bin	-0.43333333333333	0
bin	-0.4	0
bin	-0.36666666666667	0
bin	-0.33333333333333	0
bin	-0.3	0
bin	-0.26666666666667	0
bin	-0.23333333333333	0
bin	-0.2	0
bin	-0.16666666666667	0
bin	-0.13333333333333	0
bin	-0.1	0
bin	-0.066666666666667	0
bin	-0.033333333333333	0
bin	0	0
bin	0.033333333333333	0
bin	0.066666666666667	0
bin	0.1	0
bin	0.13333333333333	0
bin	0.16666666666667	0
bin	0.2	0
bin	0.23333333333333	0
bin	0.26666666666667	0
bin	0.3	0
bin	0.33333333333333	0
bin	0.36666666666667	0
bin	0.4	0
bin	0.43333333333333	0
bin	0.46666666666667	0
bin	0.5	0
statistic scenarioPRJP1.node[58].wlan[0].radio 	bitErrorRate:histogram
field count 0
field mean -nan
field stddev -nan
field sum 0
field sqrsum 0
field min -nan
field max -nan
attr source  bitErrorRate
attr title  "Bit error rate, histogram"
bin	-INF	0
bin	-0.5	0
bin	-0.46666666666667	0
bin	-0.43333333333333	0
bin	-0.4	0
bin	-0.36666666666667	0
bin	-0.33333333333333	0
bin	-0.3	0
bin	-0.26666666666667	0
bin	-0.23333333333333	0
bin	-0.2	0
bin	-0.16666666666667	0
bin	-0.13333333333333	0
bin	-0.1	0
bin	-0.066666666666667	0
bin	-0.033333333333333	0
bin	0	0
bin	0.033333333333333	0
bin	0.066666666666667	0
bin	0.1	0
bin	0.13333333333333	0
bin	0.16666666666667	0
bin	0.2	0
bin	0.23333333333333	0
bin	0.26666666666667	0
bin	0.3	0
bin	0.33333333333333	0
bin	0.36666666666667	0
bin	0.4	0
bin	0.43333333333333	0
bin	0.46666666666667	0
bin	0.5	0
statistic scenarioPRJP1.node[58].wlan[0].radio 	packetErrorRate:histogram
field count 20534
field mean 0.096924506099137
field stddev 0.28648195833024
field sum 1990.2478082397
field sqrsum 1878.0863641382
field min 0
field max 1
attr source  packetErrorRate
attr title  "Packet error rate, histogram"
bin	-INF	0
bin	-0.5	0
bin	-0.43333333333333	0
bin	-0.36666666666667	0
bin	-0.3	0
bin	-0.23333333333333	0
bin	-0.16666666666667	0
bin	-0.1	0
bin	-0.033333333333333	18052
bin	0.033333333333333	225
bin	0.1	105
bin	0.16666666666667	43
bin	0.23333333333333	48
bin	0.3	46
bin	0.36666666666667	38
bin	0.43333333333333	28
bin	0.5	28
bin	0.56666666666667	31
bin	0.63333333333333	26
bin	0.7	19
bin	0.76666666666667	37
bin	0.83333333333333	41
bin	0.9	64
bin	0.96666666666667	1703
bin	1.0333333333333	0
bin	1.1	0
bin	1.1666666666667	0
bin	1.2333333333333	0
bin	1.3	0
bin	1.3666666666667	0
bin	1.4333333333333	0
bin	1.5	0
statistic scenarioPRJP1.node[58].wlan[0].radio 	minSNIR:histogram
field count 20534
field mean 9589.9981369018
field stddev 137212.46457768
field sum 196921021.74314
field sqrsum 3.8846861075339e+14
field min 0.0039634147670275
field max 3012958.8758636
attr source  minSNIR
attr title  "Min SNIR, histogram"
bin	-INF	0
bin	-13038.91160608	0
bin	-11300.273560618	0
bin	-9561.635515156	0
bin	-7822.9974696941	0
bin	-6084.3594242322	0
bin	-4345.7213787703	0
bin	-2607.0833333085	0
bin	-868.44528784656	17719
bin	870.19275761533	1134
bin	2608.8308030772	448
bin	4347.4688485391	172
bin	6086.106894001	99
bin	7824.7449394629	131
bin	9563.3829849248	59
bin	11302.021030387	56
bin	13040.659075849	46
bin	14779.29712131	34
bin	16517.935166772	31
bin	18256.573212234	41
bin	19995.211257696	29
bin	21733.849303158	17
bin	23472.48734862	16
bin	25211.125394082	17
bin	26949.763439544	22
bin	28688.401485006	20
bin	30427.039530467	12
bin	32165.677575929	11
bin	33904.315621391	15
bin	35642.953666853	9
bin	37381.591712315	7
bin	39120.229757777	389
scalar scenarioPRJP1.node[58].lo0.lo 	droppedPkBitError:count 	0
attr interpolationmode  none
attr source  dropPkBitError
attr title  "packets dropped/bit error, count"
scalar scenarioPRJP1.node[58].lo0.lo 	droppedPkBitError:sum(packetBytes) 	0
attr interpolationmode  none
attr source  dropPkBitError
attr title  "packets dropped/bit error, sum(packetBytes)"
scalar scenarioPRJP1.node[58].lo0.lo 	rcvdPkFromHL:count 	0
attr interpolationmode  none
attr source  packetReceivedFromUpper
attr title  "packets received from higher layer, count"
scalar scenarioPRJP1.node[58].lo0.lo 	rcvdPkFromHL:sum(packetBytes) 	0
attr interpolationmode  none
attr source  packetReceivedFromUpper
attr title  "packets received from higher layer, sum(packetBytes)"
scalar scenarioPRJP1.node[58].lo0.lo 	passedUpPk:count 	0
attr interpolationmode  none
attr source  packetSentToUpper
attr title  "packets passed to higher layer, count"
scalar scenarioPRJP1.node[58].lo0.lo 	passedUpPk:sum(packetBytes) 	0
attr interpolationmode  none
attr source  packetSentToUpper
attr title  "packets passed to higher layer, sum(packetBytes)"
scalar scenarioPRJP1.node[61].app 	"Total sent" 	372
scalar scenarioPRJP1.node[61].app 	"Total received" 	32
scalar scenarioPRJP1.node[61].app 	"Total deleted" 	10
scalar scenarioPRJP1.node[61].app 	dropPk:count 	10
attr interpolationmode  none
attr source  dropPk
attr title  "packets dropped, count"
scalar scenarioPRJP1.node[61].app 	dropPk:sum(packetBytes) 	5120
attr interpolationmode  none
attr source  dropPk
attr title  "packets dropped, sum(packetBytes)"
scalar scenarioPRJP1.node[61].app 	outOfOrderPk:count 	0
attr interpolationmode  none
attr source  outOfOrderPk
attr title  "packets received out of order, count"
scalar scenarioPRJP1.node[61].app 	outOfOrderPk:sum(packetBytes) 	0
attr interpolationmode  none
attr source  outOfOrderPk
attr title  "packets received out of order, sum(packetBytes)"
scalar scenarioPRJP1.node[61].app 	rcvdPk:count 	32
attr interpolationmode  none
attr source  rcvdPk
attr title  "packets received, count"
scalar scenarioPRJP1.node[61].app 	rcvdPk:sum(packetBytes) 	16384
attr interpolationmode  none
attr source  rcvdPk
attr title  "packets received, sum(packetBytes)"
statistic scenarioPRJP1.node[61].app 	endToEndDelay:histogram
field count 32
field mean 0.56250344147597
field stddev 1.5714072732121
field sum 18.000110127231
field sqrsum 86.674069260936
field min 0.000909059062
field max 7.04686974389
attr interpolationmode  none
attr source  messageAge(rcvdPk)
attr title  "delay, histogram"
attr unit  s
bin	-INF	0
bin	-3.522071283352	0
bin	-3.0523405710301	0
bin	-2.5826098587083	0
bin	-2.1128791463864	0
bin	-1.6431484340645	0
bin	-1.1734177217427	0
bin	-0.7036870094208	0
bin	-0.23395629709893	26
bin	0.23577441522293	0
bin	0.7055051275448	3
bin	1.1752358398667	0
bin	1.6449665521885	0
bin	2.1146972645104	1
bin	2.5844279768323	0
bin	3.0541586891541	0
bin	3.523889401476	0
bin	3.9936201137979	0
bin	4.4633508261197	0
bin	4.9330815384416	1
bin	5.4028122507635	0
bin	5.8725429630853	0
bin	6.3422736754072	0
bin	6.8120043877291	1
bin	7.2817351000509	0
bin	7.7514658123728	0
bin	8.2211965246947	0
bin	8.6909272370165	0
bin	9.1606579493384	0
bin	9.6303886616603	0
bin	10.100119373982	0
bin	10.569850086304	0
scalar scenarioPRJP1.node[61].app 	sentPk:count 	372
attr interpolationmode  none
attr source  sentPk
attr title  "packets sent, count"
scalar scenarioPRJP1.node[61].app 	sentPk:sum(packetBytes) 	190464
attr interpolationmode  none
attr source  sentPk
attr title  "packets sent, sum(packetBytes)"
scalar scenarioPRJP1.node[61].udp 	droppedPkBadChecksum:count 	0
attr interpolationmode  none
attr title  "packets dropped (checksum error), count"
scalar scenarioPRJP1.node[61].udp 	droppedPkWrongPort:count 	0
attr interpolationmode  none
attr title  "packets dropped (wrong port), count"
scalar scenarioPRJP1.node[61].udp 	passedUpPk:count 	42
attr interpolationmode  none
attr title  "packets passed up, count"
scalar scenarioPRJP1.node[61].udp 	rcvdPk:count 	42
attr interpolationmode  none
attr source  rcvdPk
attr title  "packets received, count"
scalar scenarioPRJP1.node[61].udp 	rcvdPk:sum(packetBytes) 	21840
attr interpolationmode  none
attr source  rcvdPk
attr title  "packets received, sum(packetBytes)"
scalar scenarioPRJP1.node[61].udp 	sentPk:count 	372
attr interpolationmode  none
attr source  sentPk
attr title  "packets sent, count"
scalar scenarioPRJP1.node[61].udp 	sentPk:sum(packetBytes) 	193440
attr interpolationmode  none
attr source  sentPk
attr title  "packets sent, sum(packetBytes)"
scalar scenarioPRJP1.node[61].networkLayer.arp 	failedARPResolution:count 	2
attr title  "ARP failed resolutions, count"
scalar scenarioPRJP1.node[61].networkLayer.arp 	completedARPResolution:count 	150
attr title  "ARP completed resolutions, count"
scalar scenarioPRJP1.node[61].networkLayer.arp 	initiatedARPResolution:count 	19
attr title  "ARP initiated resolutions, count"
scalar scenarioPRJP1.node[61].networkLayer.arp 	sentReply:count 	10
attr title  "ARP replies sent, count"
scalar scenarioPRJP1.node[61].networkLayer.arp 	sentReq:count 	27
attr title  "ARP request sent, count"
scalar scenarioPRJP1.node[61].mobility 	startTime 	7.3
scalar scenarioPRJP1.node[61].mobility 	totalTime 	153.1
scalar scenarioPRJP1.node[61].mobility 	stopTime 	160.5
scalar scenarioPRJP1.node[61].mobility 	minSpeed 	2.4755245701449e-13
scalar scenarioPRJP1.node[61].mobility 	maxSpeed 	17.724065959375
scalar scenarioPRJP1.node[61].mobility 	totalDistance 	1484.8594859346
scalar scenarioPRJP1.node[61].mobility 	totalCO2Emission 	446.86273985766
scalar scenarioPRJP1.node[61].wlan[0].mgmt 	dataQueueLen:max 	5
attr interpolationmode  sample-hold
attr title  "data queue length, max"
scalar scenarioPRJP1.node[61].wlan[0].mgmt 	dataQueueLen:timeavg 	0
attr interpolationmode  sample-hold
attr title  "data queue length, timeavg"
scalar scenarioPRJP1.node[61].wlan[0].mgmt 	dropPkByQueue:count 	0
attr interpolationmode  none
attr source  dropPkByQueue
attr title  "packets dropped by queue, count"
scalar scenarioPRJP1.node[61].wlan[0].mgmt 	dropPkByQueue:sum(packetBytes) 	0
attr interpolationmode  none
attr source  dropPkByQueue
attr title  "packets dropped by queue, sum(packetBytes)"
scalar scenarioPRJP1.node[61].wlan[0].mac 	"number of received packets" 	142
scalar scenarioPRJP1.node[61].wlan[0].mac 	"number of collisions" 	2752
scalar scenarioPRJP1.node[61].wlan[0].mac 	"number of internal collisions" 	0
scalar scenarioPRJP1.node[61].wlan[0].mac 	"number of retry for AC 0" 	230
scalar scenarioPRJP1.node[61].wlan[0].mac 	"number of retry for AC 1" 	0
scalar scenarioPRJP1.node[61].wlan[0].mac 	"number of retry for AC 2" 	0
scalar scenarioPRJP1.node[61].wlan[0].mac 	"number of retry for AC 3" 	0
scalar scenarioPRJP1.node[61].wlan[0].mac 	"sent and received bits" 	1915776
scalar scenarioPRJP1.node[61].wlan[0].mac 	"sent packet within AC 0" 	142
scalar scenarioPRJP1.node[61].wlan[0].mac 	"sent packet within AC 1" 	0
scalar scenarioPRJP1.node[61].wlan[0].mac 	"sent packet within AC 2" 	0
scalar scenarioPRJP1.node[61].wlan[0].mac 	"sent packet within AC 3" 	0
scalar scenarioPRJP1.node[61].wlan[0].mac 	"sent in TXOP " 	0
scalar scenarioPRJP1.node[61].wlan[0].mac 	"sentWithoutRetry AC 0" 	101
scalar scenarioPRJP1.node[61].wlan[0].mac 	"sentWithoutRetry AC 1" 	0
scalar scenarioPRJP1.node[61].wlan[0].mac 	"sentWithoutRetry AC 2" 	0
scalar scenarioPRJP1.node[61].wlan[0].mac 	"sentWithoutRetry AC 3" 	0
scalar scenarioPRJP1.node[61].wlan[0].mac 	"numGivenUp AC 0" 	20
scalar scenarioPRJP1.node[61].wlan[0].mac 	"numGivenUp AC 1" 	0
scalar scenarioPRJP1.node[61].wlan[0].mac 	"numGivenUp AC 2" 	0
scalar scenarioPRJP1.node[61].wlan[0].mac 	"numGivenUp AC 3" 	0
scalar scenarioPRJP1.node[61].wlan[0].mac 	"numDropped AC 0" 	0
scalar scenarioPRJP1.node[61].wlan[0].mac 	"numDropped AC 1" 	0
scalar scenarioPRJP1.node[61].wlan[0].mac 	"numDropped AC 2" 	0
scalar scenarioPRJP1.node[61].wlan[0].mac 	"numDropped AC 3" 	0
scalar scenarioPRJP1.node[61].wlan[0].mac 	rcvdPkFromLL:count 	21282
attr interpolationmode  none
attr source  packetReceivedFromLower
attr title  "packets received from lower layer, count"
scalar scenarioPRJP1.node[61].wlan[0].mac 	rcvdPkFromLL:sum(packetBytes) 	3132840
attr interpolationmode  none
attr source  packetReceivedFromLower
attr title  "packets received from lower layer, sum(packetBytes)"
scalar scenarioPRJP1.node[61].wlan[0].mac 	sentDownPk:count 	2700
attr interpolationmode  none
attr source  packetSentToLower
attr title  "packets sent to lower layer, count"
scalar scenarioPRJP1.node[61].wlan[0].mac 	sentDownPk:sum(packetBytes) 	363220
attr interpolationmode  none
attr source  packetSentToLower
attr title  "packets sent to lower layer, sum(packetBytes)"
scalar scenarioPRJP1.node[61].wlan[0].mac 	rcvdPkFromHL:count 	2328
attr interpolationmode  none
attr source  packetReceivedFromUpper
attr title  "packets received from higher layer, count"
scalar scenarioPRJP1.node[61].wlan[0].mac 	rcvdPkFromHL:sum(packetBytes) 	250500
attr interpolationmode  none
attr source  packetReceivedFromUpper
attr title  "packets received from higher layer, sum(packetBytes)"
scalar scenarioPRJP1.node[61].wlan[0].mac 	passedUpPk:count 	14259
attr interpolationmode  none
attr source  packetSentToUpper
attr title  "packets passed to higher layer, count"
scalar scenarioPRJP1.node[61].wlan[0].mac 	passedUpPk:sum(packetBytes) 	1290824
attr interpolationmode  none
attr source  packetSentToUpper
attr title  "packets passed to higher layer, sum(packetBytes)"
statistic scenarioPRJP1.node[61].wlan[0].radio 	radioChannel:histogram
field count 1
field mean 3
field stddev -nan
field sum 3
field sqrsum 9
field min 3
field max 3
attr interpolationmode  sample-hold
attr source  radioChannelChanged
attr title  "Radio channel, histogram"
bin	-INF	0
bin	2	0
bin	3	1
bin	4	0
scalar scenarioPRJP1.node[61].wlan[0].radio 	transmissionState:count 	10800
attr interpolationmode  sample-hold
attr source  transmissionStateChanged
attr title  "Radio transmission state, count"
scalar scenarioPRJP1.node[61].wlan[0].radio 	receptionState:count 	72939
attr interpolationmode  sample-hold
attr source  receptionStateChanged
attr title  "Radio reception state, count"
scalar scenarioPRJP1.node[61].wlan[0].radio 	radioMode:count 	5402
attr interpolationmode  sample-hold
attr source  radioModeChanged
attr title  "Radio mode, count"
statistic scenarioPRJP1.node[61].wlan[0].radio 	symbolErrorRate:histogram
field count 0
field mean -nan
field stddev -nan
field sum 0
field sqrsum 0
field min -nan
field max -nan
attr source  symbolErrorRate
attr title  "Symbol error rate, histogram"
bin	-INF	0
bin	-0.5	0
bin	-0.46666666666667	0
bin	-0.43333333333333	0
bin	-0.4	0
bin	-0.36666666666667	0
bin	-0.33333333333333	0
bin	-0.3	0
bin	-0.26666666666667	0
bin	-0.23333333333333	0
bin	-0.2	0
bin	-0.16666666666667	0
bin	-0.13333333333333	0
bin	-0.1	0
bin	-0.066666666666667	0
bin	-0.033333333333333	0
bin	0	0
bin	0.033333333333333	0
bin	0.066666666666667	0
bin	0.1	0
bin	0.13333333333333	0
bin	0.16666666666667	0
bin	0.2	0
bin	0.23333333333333	0
bin	0.26666666666667	0
bin	0.3	0
bin	0.33333333333333	0
bin	0.36666666666667	0
bin	0.4	0
bin	0.43333333333333	0
bin	0.46666666666667	0
bin	0.5	0
statistic scenarioPRJP1.node[61].wlan[0].radio 	bitErrorRate:histogram
field count 0
field mean -nan
field stddev -nan
field sum 0
field sqrsum 0
field min -nan
field max -nan
attr source  bitErrorRate
attr title  "Bit error rate, histogram"
bin	-INF	0
bin	-0.5	0
bin	-0.46666666666667	0
bin	-0.43333333333333	0
bin	-0.4	0
bin	-0.36666666666667	0
bin	-0.33333333333333	0
bin	-0.3	0
bin	-0.26666666666667	0
bin	-0.23333333333333	0
bin	-0.2	0
bin	-0.16666666666667	0
bin	-0.13333333333333	0
bin	-0.1	0
bin	-0.066666666666667	0
bin	-0.033333333333333	0
bin	0	0
bin	0.033333333333333	0
bin	0.066666666666667	0
bin	0.1	0
bin	0.13333333333333	0
bin	0.16666666666667	0
bin	0.2	0
bin	0.23333333333333	0
bin	0.26666666666667	0
bin	0.3	0
bin	0.33333333333333	0
bin	0.36666666666667	0
bin	0.4	0
bin	0.43333333333333	0
bin	0.46666666666667	0
bin	0.5	0
statistic scenarioPRJP1.node[61].wlan[0].radio 	packetErrorRate:histogram
field count 21282
field mean 0.098582096352218
field stddev 0.28798260847072
field sum 2098.0241745679
field sqrsum 1971.7457089018
field min 0
field max 1
attr source  packetErrorRate
attr title  "Packet error rate, histogram"
bin	-INF	0
bin	-0.5	0
bin	-0.43333333333333	0
bin	-0.36666666666667	0
bin	-0.3	0
bin	-0.23333333333333	0
bin	-0.16666666666667	0
bin	-0.1	0
bin	-0.033333333333333	18635
bin	0.033333333333333	244
bin	0.1	109
bin	0.16666666666667	67
bin	0.23333333333333	60
bin	0.3	49
bin	0.36666666666667	39
bin	0.43333333333333	38
bin	0.5	30
bin	0.56666666666667	23
bin	0.63333333333333	31
bin	0.7	21
bin	0.76666666666667	48
bin	0.83333333333333	40
bin	0.9	55
bin	0.96666666666667	1793
bin	1.0333333333333	0
bin	1.1	0
bin	1.1666666666667	0
bin	1.2333333333333	0
bin	1.3	0
bin	1.3666666666667	0
bin	1.4333333333333	0
bin	1.5	0
statistic scenarioPRJP1.node[61].wlan[0].radio 	minSNIR:histogram
field count 21282
field mean 7640.5303023589
field stddev 102424.89021062
field sum 162605765.8948
field sqrsum 2.2449834624529e+14
field min 0.00029446722673192
field max 3012958.8518771
attr source  minSNIR
attr title  "Min SNIR, histogram"
bin	-INF	0
bin	-3798.3802980255	0
bin	-3291.9110654862	0
bin	-2785.4418329468	0
bin	-2278.9726004075	0
bin	-1772.5033678681	0
bin	-1266.0341353288	0
bin	-759.56490278946	0
bin	-253.09567025012	15971
bin	253.37356228922	2170
bin	759.84279482856	642
bin	1266.3120273679	398
bin	1772.7812599072	281
bin	2279.2504924466	174
bin	2785.7197249859	137
bin	3292.1889575253	117
bin	3798.6581900646	103
bin	4305.1274226039	85
bin	4811.5966551433	64
bin	5318.0658876826	42
bin	5824.535120222	72
bin	6331.0043527613	28
bin	6837.4735853006	37
bin	7343.94281784	32
bin	7850.4120503793	34
bin	8356.8812829187	16
bin	8863.350515458	34
bin	9369.8197479974	29
bin	9876.2889805367	17
bin	10382.758213076	19
bin	10889.227445615	11
bin	11395.696678155	769
scalar scenarioPRJP1.node[61].lo0.lo 	droppedPkBitError:count 	0
attr interpolationmode  none
attr source  dropPkBitError
attr title  "packets dropped/bit error, count"
scalar scenarioPRJP1.node[61].lo0.lo 	droppedPkBitError:sum(packetBytes) 	0
attr interpolationmode  none
attr source  dropPkBitError
attr title  "packets dropped/bit error, sum(packetBytes)"
scalar scenarioPRJP1.node[61].lo0.lo 	rcvdPkFromHL:count 	0
attr interpolationmode  none
attr source  packetReceivedFromUpper
attr title  "packets received from higher layer, count"
scalar scenarioPRJP1.node[61].lo0.lo 	rcvdPkFromHL:sum(packetBytes) 	0
attr interpolationmode  none
attr source  packetReceivedFromUpper
attr title  "packets received from higher layer, sum(packetBytes)"
scalar scenarioPRJP1.node[61].lo0.lo 	passedUpPk:count 	0
attr interpolationmode  none
attr source  packetSentToUpper
attr title  "packets passed to higher layer, count"
scalar scenarioPRJP1.node[61].lo0.lo 	passedUpPk:sum(packetBytes) 	0
attr interpolationmode  none
attr source  packetSentToUpper
attr title  "packets passed to higher layer, sum(packetBytes)"
scalar scenarioPRJP1.node[32].app 	"Total sent" 	616
scalar scenarioPRJP1.node[32].app 	"Total received" 	63
scalar scenarioPRJP1.node[32].app 	"Total deleted" 	6
scalar scenarioPRJP1.node[32].app 	dropPk:count 	6
attr interpolationmode  none
attr source  dropPk
attr title  "packets dropped, count"
scalar scenarioPRJP1.node[32].app 	dropPk:sum(packetBytes) 	3072
attr interpolationmode  none
attr source  dropPk
attr title  "packets dropped, sum(packetBytes)"
scalar scenarioPRJP1.node[32].app 	outOfOrderPk:count 	0
attr interpolationmode  none
attr source  outOfOrderPk
attr title  "packets received out of order, count"
scalar scenarioPRJP1.node[32].app 	outOfOrderPk:sum(packetBytes) 	0
attr interpolationmode  none
attr source  outOfOrderPk
attr title  "packets received out of order, sum(packetBytes)"
scalar scenarioPRJP1.node[32].app 	rcvdPk:count 	63
attr interpolationmode  none
attr source  rcvdPk
attr title  "packets received, count"
scalar scenarioPRJP1.node[32].app 	rcvdPk:sum(packetBytes) 	32256
attr interpolationmode  none
attr source  rcvdPk
attr title  "packets received, sum(packetBytes)"
statistic scenarioPRJP1.node[32].app 	endToEndDelay:histogram
field count 63
field mean 2.0554254524391
field stddev 4.4563250507658
field sum 129.49180350366
field sqrsum 1497.4083922048
field min 0.000891027341
field max 19.063185228474
attr interpolationmode  none
attr source  messageAge(rcvdPk)
attr title  "delay, histogram"
attr unit  s
bin	-INF	0
bin	-9.5302560732255	0
bin	-8.2594364598166	0
bin	-6.9886168464078	0
bin	-5.7177972329989	0
bin	-4.44697761959	0
bin	-3.1761580061812	0
bin	-1.9053383927723	0
bin	-0.63451877936343	48
bin	0.63630083404544	2
bin	1.9071204474543	0
bin	3.1779400608632	3
bin	4.448759674272	1
bin	5.7195792876809	0
bin	6.9903989010898	0
bin	8.2612185144986	3
bin	9.5320381279075	2
bin	10.802857741316	0
bin	12.073677354725	1
bin	13.344496968134	1
bin	14.615316581543	0
bin	15.886136194952	1
bin	17.156955808361	0
bin	18.42777542177	1
bin	19.698595035178	0
bin	20.969414648587	0
bin	22.240234261996	0
bin	23.511053875405	0
bin	24.781873488814	0
bin	26.052693102223	0
bin	27.323512715632	0
bin	28.594332329041	0
scalar scenarioPRJP1.node[32].app 	sentPk:count 	616
attr interpolationmode  none
attr source  sentPk
attr title  "packets sent, count"
scalar scenarioPRJP1.node[32].app 	sentPk:sum(packetBytes) 	315392
attr interpolationmode  none
attr source  sentPk
attr title  "packets sent, sum(packetBytes)"
scalar scenarioPRJP1.node[32].udp 	droppedPkBadChecksum:count 	0
attr interpolationmode  none
attr title  "packets dropped (checksum error), count"
scalar scenarioPRJP1.node[32].udp 	droppedPkWrongPort:count 	0
attr interpolationmode  none
attr title  "packets dropped (wrong port), count"
scalar scenarioPRJP1.node[32].udp 	passedUpPk:count 	69
attr interpolationmode  none
attr title  "packets passed up, count"
scalar scenarioPRJP1.node[32].udp 	rcvdPk:count 	69
attr interpolationmode  none
attr source  rcvdPk
attr title  "packets received, count"
scalar scenarioPRJP1.node[32].udp 	rcvdPk:sum(packetBytes) 	35880
attr interpolationmode  none
attr source  rcvdPk
attr title  "packets received, sum(packetBytes)"
scalar scenarioPRJP1.node[32].udp 	sentPk:count 	616
attr interpolationmode  none
attr source  sentPk
attr title  "packets sent, count"
scalar scenarioPRJP1.node[32].udp 	sentPk:sum(packetBytes) 	320320
attr interpolationmode  none
attr source  sentPk
attr title  "packets sent, sum(packetBytes)"
scalar scenarioPRJP1.node[32].networkLayer.arp 	failedARPResolution:count 	1
attr title  "ARP failed resolutions, count"
scalar scenarioPRJP1.node[32].networkLayer.arp 	completedARPResolution:count 	216
attr title  "ARP completed resolutions, count"
scalar scenarioPRJP1.node[32].networkLayer.arp 	initiatedARPResolution:count 	15
attr title  "ARP initiated resolutions, count"
scalar scenarioPRJP1.node[32].networkLayer.arp 	sentReply:count 	20
attr title  "ARP replies sent, count"
scalar scenarioPRJP1.node[32].networkLayer.arp 	sentReq:count 	22
attr title  "ARP request sent, count"
scalar scenarioPRJP1.node[32].mobility 	startTime 	2.5
scalar scenarioPRJP1.node[32].mobility 	totalTime 	246.1
scalar scenarioPRJP1.node[32].mobility 	stopTime 	248.7
scalar scenarioPRJP1.node[32].mobility 	minSpeed 	2.4781036196069e-13
scalar scenarioPRJP1.node[32].mobility 	maxSpeed 	15.771843824624
scalar scenarioPRJP1.node[32].mobility 	totalDistance 	2233.6171596893
scalar scenarioPRJP1.node[32].mobility 	totalCO2Emission 	613.83368407867
scalar scenarioPRJP1.node[32].wlan[0].mgmt 	dataQueueLen:max 	2
attr interpolationmode  sample-hold
attr title  "data queue length, max"
scalar scenarioPRJP1.node[32].wlan[0].mgmt 	dataQueueLen:timeavg 	0
attr interpolationmode  sample-hold
attr title  "data queue length, timeavg"
scalar scenarioPRJP1.node[32].wlan[0].mgmt 	dropPkByQueue:count 	0
attr interpolationmode  none
attr source  dropPkByQueue
attr title  "packets dropped by queue, count"
scalar scenarioPRJP1.node[32].wlan[0].mgmt 	dropPkByQueue:sum(packetBytes) 	0
attr interpolationmode  none
attr source  dropPkByQueue
attr title  "packets dropped by queue, sum(packetBytes)"
scalar scenarioPRJP1.node[32].wlan[0].mac 	"number of received packets" 	394
scalar scenarioPRJP1.node[32].wlan[0].mac 	"number of collisions" 	3994
scalar scenarioPRJP1.node[32].wlan[0].mac 	"number of internal collisions" 	0
scalar scenarioPRJP1.node[32].wlan[0].mac 	"number of retry for AC 0" 	428
scalar scenarioPRJP1.node[32].wlan[0].mac 	"number of retry for AC 1" 	0
scalar scenarioPRJP1.node[32].wlan[0].mac 	"number of retry for AC 2" 	0
scalar scenarioPRJP1.node[32].wlan[0].mac 	"number of retry for AC 3" 	0
scalar scenarioPRJP1.node[32].wlan[0].mac 	"sent and received bits" 	3344288
scalar scenarioPRJP1.node[32].wlan[0].mac 	"sent packet within AC 0" 	347
scalar scenarioPRJP1.node[32].wlan[0].mac 	"sent packet within AC 1" 	0
scalar scenarioPRJP1.node[32].wlan[0].mac 	"sent packet within AC 2" 	0
scalar scenarioPRJP1.node[32].wlan[0].mac 	"sent packet within AC 3" 	0
scalar scenarioPRJP1.node[32].wlan[0].mac 	"sent in TXOP " 	0
scalar scenarioPRJP1.node[32].wlan[0].mac 	"sentWithoutRetry AC 0" 	272
scalar scenarioPRJP1.node[32].wlan[0].mac 	"sentWithoutRetry AC 1" 	0
scalar scenarioPRJP1.node[32].wlan[0].mac 	"sentWithoutRetry AC 2" 	0
scalar scenarioPRJP1.node[32].wlan[0].mac 	"sentWithoutRetry AC 3" 	0
scalar scenarioPRJP1.node[32].wlan[0].mac 	"numGivenUp AC 0" 	39
scalar scenarioPRJP1.node[32].wlan[0].mac 	"numGivenUp AC 1" 	0
scalar scenarioPRJP1.node[32].wlan[0].mac 	"numGivenUp AC 2" 	0
scalar scenarioPRJP1.node[32].wlan[0].mac 	"numGivenUp AC 3" 	0
scalar scenarioPRJP1.node[32].wlan[0].mac 	"numDropped AC 0" 	0
scalar scenarioPRJP1.node[32].wlan[0].mac 	"numDropped AC 1" 	0
scalar scenarioPRJP1.node[32].wlan[0].mac 	"numDropped AC 2" 	0
scalar scenarioPRJP1.node[32].wlan[0].mac 	"numDropped AC 3" 	0
scalar scenarioPRJP1.node[32].wlan[0].mac 	rcvdPkFromLL:count 	31755
attr interpolationmode  none
attr source  packetReceivedFromLower
attr title  "packets received from lower layer, count"
scalar scenarioPRJP1.node[32].wlan[0].mac 	rcvdPkFromLL:sum(packetBytes) 	4939914
attr interpolationmode  none
attr source  packetReceivedFromLower
attr title  "packets received from lower layer, sum(packetBytes)"
scalar scenarioPRJP1.node[32].wlan[0].mac 	sentDownPk:count 	4299
attr interpolationmode  none
attr source  packetSentToLower
attr title  "packets sent to lower layer, count"
scalar scenarioPRJP1.node[32].wlan[0].mac 	sentDownPk:sum(packetBytes) 	675104
attr interpolationmode  none
attr source  packetSentToLower
attr title  "packets sent to lower layer, sum(packetBytes)"
scalar scenarioPRJP1.node[32].wlan[0].mac 	rcvdPkFromHL:count 	3477
attr interpolationmode  none
attr source  packetReceivedFromUpper
attr title  "packets received from higher layer, count"
scalar scenarioPRJP1.node[32].wlan[0].mac 	rcvdPkFromHL:sum(packetBytes) 	439988
attr interpolationmode  none
attr source  packetReceivedFromUpper
attr title  "packets received from higher layer, sum(packetBytes)"
scalar scenarioPRJP1.node[32].wlan[0].mac 	passedUpPk:count 	18604
attr interpolationmode  none
attr source  packetSentToUpper
attr title  "packets passed to higher layer, count"
scalar scenarioPRJP1.node[32].wlan[0].mac 	passedUpPk:sum(packetBytes) 	1750212
attr interpolationmode  none
attr source  packetSentToUpper
attr title  "packets passed to higher layer, sum(packetBytes)"
statistic scenarioPRJP1.node[32].wlan[0].radio 	radioChannel:histogram
field count 1
field mean 3
field stddev -nan
field sum 3
field sqrsum 9
field min 3
field max 3
attr interpolationmode  sample-hold
attr source  radioChannelChanged
attr title  "Radio channel, histogram"
bin	-INF	0
bin	2	0
bin	3	1
bin	4	0
scalar scenarioPRJP1.node[32].wlan[0].radio 	transmissionState:count 	17196
attr interpolationmode  sample-hold
attr source  transmissionStateChanged
attr title  "Radio transmission state, count"
scalar scenarioPRJP1.node[32].wlan[0].radio 	receptionState:count 	119753
attr interpolationmode  sample-hold
attr source  receptionStateChanged
attr title  "Radio reception state, count"
scalar scenarioPRJP1.node[32].wlan[0].radio 	radioMode:count 	8600
attr interpolationmode  sample-hold
attr source  radioModeChanged
attr title  "Radio mode, count"
statistic scenarioPRJP1.node[32].wlan[0].radio 	symbolErrorRate:histogram
field count 0
field mean -nan
field stddev -nan
field sum 0
field sqrsum 0
field min -nan
field max -nan
attr source  symbolErrorRate
attr title  "Symbol error rate, histogram"
bin	-INF	0
bin	-0.5	0
bin	-0.46666666666667	0
bin	-0.43333333333333	0
bin	-0.4	0
bin	-0.36666666666667	0
bin	-0.33333333333333	0
bin	-0.3	0
bin	-0.26666666666667	0
bin	-0.23333333333333	0
bin	-0.2	0
bin	-0.16666666666667	0
bin	-0.13333333333333	0
bin	-0.1	0
bin	-0.066666666666667	0
bin	-0.033333333333333	0
bin	0	0
bin	0.033333333333333	0
bin	0.066666666666667	0
bin	0.1	0
bin	0.13333333333333	0
bin	0.16666666666667	0
bin	0.2	0
bin	0.23333333333333	0
bin	0.26666666666667	0
bin	0.3	0
bin	0.33333333333333	0
bin	0.36666666666667	0
bin	0.4	0
bin	0.43333333333333	0
bin	0.46666666666667	0
bin	0.5	0
statistic scenarioPRJP1.node[32].wlan[0].radio 	bitErrorRate:histogram
field count 0
field mean -nan
field stddev -nan
field sum 0
field sqrsum 0
field min -nan
field max -nan
attr source  bitErrorRate
attr title  "Bit error rate, histogram"
bin	-INF	0
bin	-0.5	0
bin	-0.46666666666667	0
bin	-0.43333333333333	0
bin	-0.4	0
bin	-0.36666666666667	0
bin	-0.33333333333333	0
bin	-0.3	0
bin	-0.26666666666667	0
bin	-0.23333333333333	0
bin	-0.2	0
bin	-0.16666666666667	0
bin	-0.13333333333333	0
bin	-0.1	0
bin	-0.066666666666667	0
bin	-0.033333333333333	0
bin	0	0
bin	0.033333333333333	0
bin	0.066666666666667	0
bin	0.1	0
bin	0.13333333333333	0
bin	0.16666666666667	0
bin	0.2	0
bin	0.23333333333333	0
bin	0.26666666666667	0
bin	0.3	0
bin	0.33333333333333	0
bin	0.36666666666667	0
bin	0.4	0
bin	0.43333333333333	0
bin	0.46666666666667	0
bin	0.5	0
statistic scenarioPRJP1.node[32].wlan[0].radio 	packetErrorRate:histogram
field count 31755
field mean 0.10008470568057
field stddev 0.29056245435729
field sum 3178.1898288864
field sqrsum 2998.9685410383
field min 0
field max 1
attr source  packetErrorRate
attr title  "Packet error rate, histogram"
bin	-INF	0
bin	-1	0
bin	0	29537
bin	1	2218
bin	2	0
statistic scenarioPRJP1.node[32].wlan[0].radio 	minSNIR:histogram
field count 31755
field mean 28880.539427625
field stddev 256748.40469242
field sum 917101529.52424
field sqrsum 2.1197019160151e+15
field min 0.00011461021331084
field max 3012958.8769377
attr source  minSNIR
attr title  "Min SNIR, histogram"
bin	-INF	0
bin	-31615.183771429	0
bin	-27399.816846123	0
bin	-23184.449920817	0
bin	-18969.082995511	0
bin	-14753.716070205	0
bin	-10538.349144899	0
bin	-6322.9822195926	0
bin	-2107.6152942865	27200
bin	2107.7516310196	1552
bin	6323.1185563257	588
bin	10538.485481632	439
bin	14753.852406938	226
bin	18969.219332244	180
bin	23184.58625755	156
bin	27399.953182856	107
bin	31615.320108162	90
bin	35830.687033469	70
bin	40046.053958775	54
bin	44261.420884081	53
bin	48476.787809387	55
bin	52692.154734693	38
bin	56907.521659999	41
bin	61122.888585305	58
bin	65338.255510611	33
bin	69553.622435917	20
bin	73768.989361224	19
bin	77984.35628653	15
bin	82199.723211836	8
bin	86415.090137142	11
bin	90630.457062448	11
bin	94845.823987754	731
scalar scenarioPRJP1.node[32].lo0.lo 	droppedPkBitError:count 	0
attr interpolationmode  none
attr source  dropPkBitError
attr title  "packets dropped/bit error, count"
scalar scenarioPRJP1.node[32].lo0.lo 	droppedPkBitError:sum(packetBytes) 	0
attr interpolationmode  none
attr source  dropPkBitError
attr title  "packets dropped/bit error, sum(packetBytes)"
scalar scenarioPRJP1.node[32].lo0.lo 	rcvdPkFromHL:count 	0
attr interpolationmode  none
attr source  packetReceivedFromUpper
attr title  "packets received from higher layer, count"
scalar scenarioPRJP1.node[32].lo0.lo 	rcvdPkFromHL:sum(packetBytes) 	0
attr interpolationmode  none
attr source  packetReceivedFromUpper
attr title  "packets received from higher layer, sum(packetBytes)"
scalar scenarioPRJP1.node[32].lo0.lo 	passedUpPk:count 	0
attr interpolationmode  none
attr source  packetSentToUpper
attr title  "packets passed to higher layer, count"
scalar scenarioPRJP1.node[32].lo0.lo 	passedUpPk:sum(packetBytes) 	0
attr interpolationmode  none
attr source  packetSentToUpper
attr title  "packets passed to higher layer, sum(packetBytes)"
scalar scenarioPRJP1.node[83].app 	"Total sent" 	725
scalar scenarioPRJP1.node[83].app 	"Total received" 	77
scalar scenarioPRJP1.node[83].app 	"Total deleted" 	24
scalar scenarioPRJP1.node[83].app 	dropPk:count 	24
attr interpolationmode  none
attr source  dropPk
attr title  "packets dropped, count"
scalar scenarioPRJP1.node[83].app 	dropPk:sum(packetBytes) 	12288
attr interpolationmode  none
attr source  dropPk
attr title  "packets dropped, sum(packetBytes)"
scalar scenarioPRJP1.node[83].app 	outOfOrderPk:count 	8
attr interpolationmode  none
attr source  outOfOrderPk
attr title  "packets received out of order, count"
scalar scenarioPRJP1.node[83].app 	outOfOrderPk:sum(packetBytes) 	4096
attr interpolationmode  none
attr source  outOfOrderPk
attr title  "packets received out of order, sum(packetBytes)"
scalar scenarioPRJP1.node[83].app 	rcvdPk:count 	77
attr interpolationmode  none
attr source  rcvdPk
attr title  "packets received, count"
scalar scenarioPRJP1.node[83].app 	rcvdPk:sum(packetBytes) 	39424
attr interpolationmode  none
attr source  rcvdPk
attr title  "packets received, sum(packetBytes)"
statistic scenarioPRJP1.node[83].app 	endToEndDelay:histogram
field count 77
field mean 1.6169176057023
field stddev 3.871203510618
field sum 124.50265563907
field sqrsum 1340.2629990267
field min 0.000909085935
field max 17.039666896124
attr interpolationmode  none
attr source  messageAge(rcvdPk)
attr title  "delay, histogram"
attr unit  s
bin	-INF	0
bin	-8.5184698191595	0
bin	-7.3825526318136	0
bin	-6.2466354444676	0
bin	-5.1107182571217	0
bin	-3.9748010697758	0
bin	-2.8388838824298	0
bin	-1.7029666950839	0
bin	-0.56704950773797	57
bin	0.56886767960797	7
bin	1.7047848669539	2
bin	2.8407020542998	0
bin	3.9766192416458	2
bin	5.1125364289917	1
bin	6.2484536163376	1
bin	7.3843708036836	2
bin	8.5202879910295	0
bin	9.6562051783754	0
bin	10.792122365721	0
bin	11.928039553067	2
bin	13.063956740413	0
bin	14.199873927759	1
bin	15.335791115105	0
bin	16.471708302451	2
bin	17.607625489797	0
bin	18.743542677143	0
bin	19.879459864489	0
bin	21.015377051835	0
bin	22.151294239181	0
bin	23.287211426527	0
bin	24.423128613873	0
bin	25.559045801219	0
scalar scenarioPRJP1.node[83].app 	sentPk:count 	725
attr interpolationmode  none
attr source  sentPk
attr title  "packets sent, count"
scalar scenarioPRJP1.node[83].app 	sentPk:sum(packetBytes) 	371200
attr interpolationmode  none
attr source  sentPk
attr title  "packets sent, sum(packetBytes)"
scalar scenarioPRJP1.node[83].udp 	droppedPkBadChecksum:count 	0
attr interpolationmode  none
attr title  "packets dropped (checksum error), count"
scalar scenarioPRJP1.node[83].udp 	droppedPkWrongPort:count 	0
attr interpolationmode  none
attr title  "packets dropped (wrong port), count"
scalar scenarioPRJP1.node[83].udp 	passedUpPk:count 	109
attr interpolationmode  none
attr title  "packets passed up, count"
scalar scenarioPRJP1.node[83].udp 	rcvdPk:count 	109
attr interpolationmode  none
attr source  rcvdPk
attr title  "packets received, count"
scalar scenarioPRJP1.node[83].udp 	rcvdPk:sum(packetBytes) 	56680
attr interpolationmode  none
attr source  rcvdPk
attr title  "packets received, sum(packetBytes)"
scalar scenarioPRJP1.node[83].udp 	sentPk:count 	725
attr interpolationmode  none
attr source  sentPk
attr title  "packets sent, count"
scalar scenarioPRJP1.node[83].udp 	sentPk:sum(packetBytes) 	377000
attr interpolationmode  none
attr source  sentPk
attr title  "packets sent, sum(packetBytes)"
scalar scenarioPRJP1.node[83].networkLayer.arp 	failedARPResolution:count 	4
attr title  "ARP failed resolutions, count"
scalar scenarioPRJP1.node[83].networkLayer.arp 	completedARPResolution:count 	261
attr title  "ARP completed resolutions, count"
scalar scenarioPRJP1.node[83].networkLayer.arp 	initiatedARPResolution:count 	21
attr title  "ARP initiated resolutions, count"
scalar scenarioPRJP1.node[83].networkLayer.arp 	sentReply:count 	26
attr title  "ARP replies sent, count"
scalar scenarioPRJP1.node[83].networkLayer.arp 	sentReq:count 	34
attr title  "ARP request sent, count"
scalar scenarioPRJP1.node[83].mobility 	startTime 	9.7
scalar scenarioPRJP1.node[83].mobility 	totalTime 	274.9
scalar scenarioPRJP1.node[83].mobility 	stopTime 	284.7
scalar scenarioPRJP1.node[83].mobility 	minSpeed 	2.4754336129458e-13
scalar scenarioPRJP1.node[83].mobility 	maxSpeed 	17.86657422402
scalar scenarioPRJP1.node[83].mobility 	totalDistance 	2204.3118357657
scalar scenarioPRJP1.node[83].mobility 	totalCO2Emission 	704.90815958874
scalar scenarioPRJP1.node[83].wlan[0].mgmt 	dataQueueLen:max 	11
attr interpolationmode  sample-hold
attr title  "data queue length, max"
scalar scenarioPRJP1.node[83].wlan[0].mgmt 	dataQueueLen:timeavg 	0
attr interpolationmode  sample-hold
attr title  "data queue length, timeavg"
scalar scenarioPRJP1.node[83].wlan[0].mgmt 	dropPkByQueue:count 	0
attr interpolationmode  none
attr source  dropPkByQueue
attr title  "packets dropped by queue, count"
scalar scenarioPRJP1.node[83].wlan[0].mgmt 	dropPkByQueue:sum(packetBytes) 	0
attr interpolationmode  none
attr source  dropPkByQueue
attr title  "packets dropped by queue, sum(packetBytes)"
scalar scenarioPRJP1.node[83].wlan[0].mac 	"number of received packets" 	430
scalar scenarioPRJP1.node[83].wlan[0].mac 	"number of collisions" 	6862
scalar scenarioPRJP1.node[83].wlan[0].mac 	"number of internal collisions" 	0
scalar scenarioPRJP1.node[83].wlan[0].mac 	"number of retry for AC 0" 	635
scalar scenarioPRJP1.node[83].wlan[0].mac 	"number of retry for AC 1" 	8
scalar scenarioPRJP1.node[83].wlan[0].mac 	"number of retry for AC 2" 	0
scalar scenarioPRJP1.node[83].wlan[0].mac 	"number of retry for AC 3" 	0
scalar scenarioPRJP1.node[83].wlan[0].mac 	"sent and received bits" 	4081824
scalar scenarioPRJP1.node[83].wlan[0].mac 	"sent packet within AC 0" 	445
scalar scenarioPRJP1.node[83].wlan[0].mac 	"sent packet within AC 1" 	2
scalar scenarioPRJP1.node[83].wlan[0].mac 	"sent packet within AC 2" 	0
scalar scenarioPRJP1.node[83].wlan[0].mac 	"sent packet within AC 3" 	0
scalar scenarioPRJP1.node[83].wlan[0].mac 	"sent in TXOP " 	0
scalar scenarioPRJP1.node[83].wlan[0].mac 	"sentWithoutRetry AC 0" 	315
scalar scenarioPRJP1.node[83].wlan[0].mac 	"sentWithoutRetry AC 1" 	1
scalar scenarioPRJP1.node[83].wlan[0].mac 	"sentWithoutRetry AC 2" 	0
scalar scenarioPRJP1.node[83].wlan[0].mac 	"sentWithoutRetry AC 3" 	0
scalar scenarioPRJP1.node[83].wlan[0].mac 	"numGivenUp AC 0" 	41
scalar scenarioPRJP1.node[83].wlan[0].mac 	"numGivenUp AC 1" 	1
scalar scenarioPRJP1.node[83].wlan[0].mac 	"numGivenUp AC 2" 	0
scalar scenarioPRJP1.node[83].wlan[0].mac 	"numGivenUp AC 3" 	0
scalar scenarioPRJP1.node[83].wlan[0].mac 	"numDropped AC 0" 	0
scalar scenarioPRJP1.node[83].wlan[0].mac 	"numDropped AC 1" 	0
scalar scenarioPRJP1.node[83].wlan[0].mac 	"numDropped AC 2" 	0
scalar scenarioPRJP1.node[83].wlan[0].mac 	"numDropped AC 3" 	0
scalar scenarioPRJP1.node[83].wlan[0].mac 	rcvdPkFromLL:count 	47577
attr interpolationmode  none
attr source  packetReceivedFromLower
attr title  "packets received from lower layer, count"
scalar scenarioPRJP1.node[83].wlan[0].mac 	rcvdPkFromLL:sum(packetBytes) 	8162654
attr interpolationmode  none
attr source  packetReceivedFromLower
attr title  "packets received from lower layer, sum(packetBytes)"
scalar scenarioPRJP1.node[83].wlan[0].mac 	sentDownPk:count 	5254
attr interpolationmode  none
attr source  packetSentToLower
attr title  "packets sent to lower layer, count"
scalar scenarioPRJP1.node[83].wlan[0].mac 	sentDownPk:sum(packetBytes) 	839664
attr interpolationmode  none
attr source  packetSentToLower
attr title  "packets sent to lower layer, sum(packetBytes)"
scalar scenarioPRJP1.node[83].wlan[0].mac 	rcvdPkFromHL:count 	4181
attr interpolationmode  none
attr source  packetReceivedFromUpper
attr title  "packets received from higher layer, count"
scalar scenarioPRJP1.node[83].wlan[0].mac 	rcvdPkFromHL:sum(packetBytes) 	530924
attr interpolationmode  none
attr source  packetReceivedFromUpper
attr title  "packets received from higher layer, sum(packetBytes)"
scalar scenarioPRJP1.node[83].wlan[0].mac 	passedUpPk:count 	27324
attr interpolationmode  none
attr source  packetSentToUpper
attr title  "packets passed to higher layer, count"
scalar scenarioPRJP1.node[83].wlan[0].mac 	passedUpPk:sum(packetBytes) 	2529172
attr interpolationmode  none
attr source  packetSentToUpper
attr title  "packets passed to higher layer, sum(packetBytes)"
statistic scenarioPRJP1.node[83].wlan[0].radio 	radioChannel:histogram
field count 1
field mean 3
field stddev -nan
field sum 3
field sqrsum 9
field min 3
field max 3
attr interpolationmode  sample-hold
attr source  radioChannelChanged
attr title  "Radio channel, histogram"
bin	-INF	0
bin	2	0
bin	3	1
bin	4	0
scalar scenarioPRJP1.node[83].wlan[0].radio 	transmissionState:count 	21016
attr interpolationmode  sample-hold
attr source  transmissionStateChanged
attr title  "Radio transmission state, count"
scalar scenarioPRJP1.node[83].wlan[0].radio 	receptionState:count 	179657
attr interpolationmode  sample-hold
attr source  receptionStateChanged
attr title  "Radio reception state, count"
scalar scenarioPRJP1.node[83].wlan[0].radio 	radioMode:count 	10510
attr interpolationmode  sample-hold
attr source  radioModeChanged
attr title  "Radio mode, count"
statistic scenarioPRJP1.node[83].wlan[0].radio 	symbolErrorRate:histogram
field count 0
field mean -nan
field stddev -nan
field sum 0
field sqrsum 0
field min -nan
field max -nan
attr source  symbolErrorRate
attr title  "Symbol error rate, histogram"
bin	-INF	0
bin	-0.5	0
bin	-0.46666666666667	0
bin	-0.43333333333333	0
bin	-0.4	0
bin	-0.36666666666667	0
bin	-0.33333333333333	0
bin	-0.3	0
bin	-0.26666666666667	0
bin	-0.23333333333333	0
bin	-0.2	0
bin	-0.16666666666667	0
[...]
attr interpolationmode  none
attr source  packetSentToUpper
attr title  "packets passed to higher layer, sum(packetBytes)"
statistic scenarioPRJP1.node[79].wlan[0].radio 	radioChannel:histogram
field count 1
field mean 3
field stddev -nan
field sum 3
field sqrsum 9
field min 3
field max 3
attr interpolationmode  sample-hold
attr source  radioChannelChanged
attr title  "Radio channel, histogram"
bin	-INF	0
bin	2	0
bin	3	1
bin	4	0
scalar scenarioPRJP1.node[79].wlan[0].radio 	transmissionState:count 	249248
attr interpolationmode  sample-hold
attr source  transmissionStateChanged
attr title  "Radio transmission state, count"
scalar scenarioPRJP1.node[79].wlan[0].radio 	receptionState:count 	1662871
attr interpolationmode  sample-hold
attr source  receptionStateChanged
attr title  "Radio reception state, count"
scalar scenarioPRJP1.node[79].wlan[0].radio 	radioMode:count 	124626
attr interpolationmode  sample-hold
attr source  radioModeChanged
attr title  "Radio mode, count"
statistic scenarioPRJP1.node[79].wlan[0].radio 	symbolErrorRate:histogram
field count 0
field mean -nan
field stddev -nan
field sum 0
field sqrsum 0
field min -nan
field max -nan
attr source  symbolErrorRate
attr title  "Symbol error rate, histogram"
bin	-INF	0
bin	-0.5	0
bin	-0.46666666666667	0
bin	-0.43333333333333	0
bin	-0.4	0
bin	-0.36666666666667	0
bin	-0.33333333333333	0
bin	-0.3	0
bin	-0.26666666666667	0
bin	-0.23333333333333	0
bin	-0.2	0
bin	-0.16666666666667	0
bin	-0.13333333333333	0
bin	-0.1	0
bin	-0.066666666666667	0
bin	-0.033333333333333	0
bin	0	0
bin	0.033333333333333	0
bin	0.066666666666667	0
bin	0.1	0
bin	0.13333333333333	0
bin	0.16666666666667	0
bin	0.2	0
bin	0.23333333333333	0
bin	0.26666666666667	0
bin	0.3	0
bin	0.33333333333333	0
bin	0.36666666666667	0
bin	0.4	0
bin	0.43333333333333	0
bin	0.46666666666667	0
bin	0.5	0
statistic scenarioPRJP1.node[79].wlan[0].radio 	bitErrorRate:histogram
field count 0
field mean -nan
field stddev -nan
field sum 0
field sqrsum 0
field min -nan
field max -nan
attr source  bitErrorRate
attr title  "Bit error rate, histogram"
bin	-INF	0
bin	-0.5	0
bin	-0.46666666666667	0
bin	-0.43333333333333	0
bin	-0.4	0
bin	-0.36666666666667	0
bin	-0.33333333333333	0
bin	-0.3	0
bin	-0.26666666666667	0
bin	-0.23333333333333	0
bin	-0.2	0
bin	-0.16666666666667	0
bin	-0.13333333333333	0
bin	-0.1	0
bin	-0.066666666666667	0
bin	-0.033333333333333	0
bin	0	0
bin	0.033333333333333	0
bin	0.066666666666667	0
bin	0.1	0
bin	0.13333333333333	0
bin	0.16666666666667	0
bin	0.2	0
bin	0.23333333333333	0
bin	0.26666666666667	0
bin	0.3	0
bin	0.33333333333333	0
bin	0.36666666666667	0
bin	0.4	0
bin	0.43333333333333	0
bin	0.46666666666667	0
bin	0.5	0
statistic scenarioPRJP1.node[79].wlan[0].radio 	packetErrorRate:histogram
field count 412879
field mean 0.15251827960228
field stddev 0.34930075198545
field sum 62971.594763909
field sqrsum 59979.983287762
field min 0
field max 1
attr source  packetErrorRate
attr title  "Packet error rate, histogram"
bin	-INF	0
bin	-0.5	0
bin	-0.43333333333333	0
bin	-0.36666666666667	0
bin	-0.3	0
bin	-0.23333333333333	0
bin	-0.16666666666667	0
bin	-0.1	0
bin	-0.033333333333333	337436
bin	0.033333333333333	5180
bin	0.1	2497
bin	0.16666666666667	1615
bin	0.23333333333333	1259
bin	0.3	1144
bin	0.36666666666667	961
bin	0.43333333333333	844
bin	0.5	807
bin	0.56666666666667	799
bin	0.63333333333333	745
bin	0.7	825
bin	0.76666666666667	803
bin	0.83333333333333	998
bin	0.9	1421
bin	0.96666666666667	55545
bin	1.0333333333333	0
bin	1.1	0
bin	1.1666666666667	0
bin	1.2333333333333	0
bin	1.3	0
bin	1.3666666666667	0
bin	1.4333333333333	0
bin	1.5	0
statistic scenarioPRJP1.node[79].wlan[0].radio 	minSNIR:histogram
field count 412879
field mean 15463.869604626
field stddev 152945.61636118
field sum 6384707018.4882
field sqrsum 9.7569237346601e+15
field min 0.00010742298086196
field max 4030158.7318344
attr source  minSNIR
attr title  "Min SNIR, histogram"
bin	-INF	0
bin	-51609.526789743	0
bin	-44728.136666006	0
bin	-37846.746542268	0
bin	-30965.356418531	0
bin	-24083.966294794	0
bin	-17202.576171056	0
bin	-10321.186047319	0
bin	-3439.7959235818	373892
bin	3441.5942001555	14020
bin	10322.984323893	5314
bin	17204.37444763	2232
bin	24085.764571367	1595
bin	30967.154695105	1118
bin	37848.544818842	811
bin	44729.934942579	1246
bin	51611.325066317	621
bin	58492.715190054	548
bin	65374.105313791	441
bin	72255.495437528	617
bin	79136.885561266	494
bin	86018.275685003	1190
bin	92899.66580874	597
bin	99781.055932478	164
bin	106662.44605621	153
bin	113543.83617995	180
bin	120425.22630369	111
bin	127306.61642743	156
bin	134188.00655116	113
bin	141069.3966749	95
bin	147950.78679864	179
bin	154832.17692238	6992
scalar scenarioPRJP1.node[79].lo0.lo 	droppedPkBitError:count 	0
attr interpolationmode  none
attr source  dropPkBitError
attr title  "packets dropped/bit error, count"
scalar scenarioPRJP1.node[79].lo0.lo 	droppedPkBitError:sum(packetBytes) 	0
attr interpolationmode  none
attr source  dropPkBitError
attr title  "packets dropped/bit error, sum(packetBytes)"
scalar scenarioPRJP1.node[79].lo0.lo 	rcvdPkFromHL:count 	1
attr interpolationmode  none
attr source  packetReceivedFromUpper
attr title  "packets received from higher layer, count"
scalar scenarioPRJP1.node[79].lo0.lo 	rcvdPkFromHL:sum(packetBytes) 	56
attr interpolationmode  none
attr source  packetReceivedFromUpper
attr title  "packets received from higher layer, sum(packetBytes)"
scalar scenarioPRJP1.node[79].lo0.lo 	passedUpPk:count 	1
attr interpolationmode  none
attr source  packetSentToUpper
attr title  "packets passed to higher layer, count"
scalar scenarioPRJP1.node[79].lo0.lo 	passedUpPk:sum(packetBytes) 	56
attr interpolationmode  none
attr source  packetSentToUpper
attr title  "packets passed to higher layer, sum(packetBytes)"
scalar scenarioPRJP1.node[96].app 	"Total sent" 	5027
scalar scenarioPRJP1.node[96].app 	"Total received" 	317
scalar scenarioPRJP1.node[96].app 	"Total deleted" 	178
scalar scenarioPRJP1.node[96].app 	dropPk:count 	178
attr interpolationmode  none
attr source  dropPk
attr title  "packets dropped, count"
scalar scenarioPRJP1.node[96].app 	dropPk:sum(packetBytes) 	91136
attr interpolationmode  none
attr source  dropPk
attr title  "packets dropped, sum(packetBytes)"
scalar scenarioPRJP1.node[96].app 	outOfOrderPk:count 	43
attr interpolationmode  none
attr source  outOfOrderPk
attr title  "packets received out of order, count"
scalar scenarioPRJP1.node[96].app 	outOfOrderPk:sum(packetBytes) 	22016
attr interpolationmode  none
attr source  outOfOrderPk
attr title  "packets received out of order, sum(packetBytes)"
scalar scenarioPRJP1.node[96].app 	rcvdPk:count 	317
attr interpolationmode  none
attr source  rcvdPk
attr title  "packets received, count"
scalar scenarioPRJP1.node[96].app 	rcvdPk:sum(packetBytes) 	162304
attr interpolationmode  none
attr source  rcvdPk
attr title  "packets received, sum(packetBytes)"
statistic scenarioPRJP1.node[96].app 	endToEndDelay:histogram
field count 317
field mean 1.4447406526171
field stddev 3.7940997414271
field sum 457.98278687962
field sqrsum 5210.5472903393
field min 0.000891550957
field max 19.661292659855
attr interpolationmode  none
attr source  messageAge(rcvdPk)
attr title  "delay, histogram"
attr unit  s
bin	-INF	0
bin	-9.829268905051	0
bin	-8.5185772799441	0
bin	-7.2078856548371	0
bin	-5.8971940297302	0
bin	-4.5865024046233	0
bin	-3.2758107795163	0
bin	-1.9651191544094	0
bin	-0.65442752930247	250
bin	0.65626409580447	17
bin	1.9669557209114	12
bin	3.2776473460183	4
bin	4.5883389711253	3
bin	5.8990305962322	3
bin	7.2097222213391	3
bin	8.5204138464461	5
bin	9.831105471553	3
bin	11.14179709666	4
bin	12.452488721767	3
bin	13.763180346874	3
bin	15.073871971981	2
bin	16.384563597088	2
bin	17.695255222195	1
bin	19.005946847302	2
bin	20.316638472408	0
bin	21.627330097515	0
bin	22.938021722622	0
bin	24.248713347729	0
bin	25.559404972836	0
bin	26.870096597943	0
bin	28.18078822305	0
bin	29.491479848157	0
scalar scenarioPRJP1.node[96].app 	sentPk:count 	5027
attr interpolationmode  none
attr source  sentPk
attr title  "packets sent, count"
scalar scenarioPRJP1.node[96].app 	sentPk:sum(packetBytes) 	2573824
attr interpolationmode  none
attr source  sentPk
attr title  "packets sent, sum(packetBytes)"
scalar scenarioPRJP1.node[96].udp 	droppedPkBadChecksum:count 	0
attr interpolationmode  none
attr title  "packets dropped (checksum error), count"
scalar scenarioPRJP1.node[96].udp 	droppedPkWrongPort:count 	2
attr interpolationmode  none
attr title  "packets dropped (wrong port), count"
scalar scenarioPRJP1.node[96].udp 	passedUpPk:count 	538
attr interpolationmode  none
attr title  "packets passed up, count"
scalar scenarioPRJP1.node[96].udp 	rcvdPk:count 	540
attr interpolationmode  none
attr source  rcvdPk
attr title  "packets received, count"
scalar scenarioPRJP1.node[96].udp 	rcvdPk:sum(packetBytes) 	280800
attr interpolationmode  none
attr source  rcvdPk
attr title  "packets received, sum(packetBytes)"
scalar scenarioPRJP1.node[96].udp 	sentPk:count 	5027
attr interpolationmode  none
attr source  sentPk
attr title  "packets sent, count"
scalar scenarioPRJP1.node[96].udp 	sentPk:sum(packetBytes) 	2614040
attr interpolationmode  none
attr source  sentPk
attr title  "packets sent, sum(packetBytes)"
scalar scenarioPRJP1.node[96].networkLayer.arp 	failedARPResolution:count 	23
attr title  "ARP failed resolutions, count"
scalar scenarioPRJP1.node[96].networkLayer.arp 	completedARPResolution:count 	1884
attr title  "ARP completed resolutions, count"
scalar scenarioPRJP1.node[96].networkLayer.arp 	initiatedARPResolution:count 	181
attr title  "ARP initiated resolutions, count"
scalar scenarioPRJP1.node[96].networkLayer.arp 	sentReply:count 	124
attr title  "ARP replies sent, count"
scalar scenarioPRJP1.node[96].networkLayer.arp 	sentReq:count 	296
attr title  "ARP request sent, count"
scalar scenarioPRJP1.node[96].mobility 	startTime 	9.8
scalar scenarioPRJP1.node[96].mobility 	totalTime 	1890.2
scalar scenarioPRJP1.node[96].mobility 	stopTime 	1900
scalar scenarioPRJP1.node[96].mobility 	minSpeed 	2.4754313418422e-13
scalar scenarioPRJP1.node[96].mobility 	maxSpeed 	17.492576663816
scalar scenarioPRJP1.node[96].mobility 	totalDistance 	18981.144897513
scalar scenarioPRJP1.node[96].mobility 	totalCO2Emission 	4960.4139275088
scalar scenarioPRJP1.node[96].wlan[0].mgmt 	dataQueueLen:max 	31
attr interpolationmode  sample-hold
attr title  "data queue length, max"
scalar scenarioPRJP1.node[96].wlan[0].mgmt 	dataQueueLen:timeavg 	0
attr interpolationmode  sample-hold
attr title  "data queue length, timeavg"
scalar scenarioPRJP1.node[96].wlan[0].mgmt 	dropPkByQueue:count 	0
attr interpolationmode  none
attr source  dropPkByQueue
attr title  "packets dropped by queue, count"
scalar scenarioPRJP1.node[96].wlan[0].mgmt 	dropPkByQueue:sum(packetBytes) 	0
attr interpolationmode  none
attr source  dropPkByQueue
attr title  "packets dropped by queue, sum(packetBytes)"
scalar scenarioPRJP1.node[96].wlan[0].mac 	"number of received packets" 	16729
scalar scenarioPRJP1.node[96].wlan[0].mac 	"number of collisions" 	90038
scalar scenarioPRJP1.node[96].wlan[0].mac 	"number of internal collisions" 	1
scalar scenarioPRJP1.node[96].wlan[0].mac 	"number of retry for AC 0" 	9772
scalar scenarioPRJP1.node[96].wlan[0].mac 	"number of retry for AC 1" 	18
scalar scenarioPRJP1.node[96].wlan[0].mac 	"number of retry for AC 2" 	0
scalar scenarioPRJP1.node[96].wlan[0].mac 	"number of retry for AC 3" 	0
scalar scenarioPRJP1.node[96].wlan[0].mac 	"sent and received bits" 	54359584
scalar scenarioPRJP1.node[96].wlan[0].mac 	"sent packet within AC 0" 	16537
scalar scenarioPRJP1.node[96].wlan[0].mac 	"sent packet within AC 1" 	63
scalar scenarioPRJP1.node[96].wlan[0].mac 	"sent packet within AC 2" 	0
scalar scenarioPRJP1.node[96].wlan[0].mac 	"sent packet within AC 3" 	0
scalar scenarioPRJP1.node[96].wlan[0].mac 	"sent in TXOP " 	0
scalar scenarioPRJP1.node[96].wlan[0].mac 	"sentWithoutRetry AC 0" 	14703
scalar scenarioPRJP1.node[96].wlan[0].mac 	"sentWithoutRetry AC 1" 	52
scalar scenarioPRJP1.node[96].wlan[0].mac 	"sentWithoutRetry AC 2" 	0
scalar scenarioPRJP1.node[96].wlan[0].mac 	"sentWithoutRetry AC 3" 	0
scalar scenarioPRJP1.node[96].wlan[0].mac 	"numGivenUp AC 0" 	886
scalar scenarioPRJP1.node[96].wlan[0].mac 	"numGivenUp AC 1" 	0
scalar scenarioPRJP1.node[96].wlan[0].mac 	"numGivenUp AC 2" 	0
scalar scenarioPRJP1.node[96].wlan[0].mac 	"numGivenUp AC 3" 	0
scalar scenarioPRJP1.node[96].wlan[0].mac 	"numDropped AC 0" 	0
scalar scenarioPRJP1.node[96].wlan[0].mac 	"numDropped AC 1" 	0
scalar scenarioPRJP1.node[96].wlan[0].mac 	"numDropped AC 2" 	0
scalar scenarioPRJP1.node[96].wlan[0].mac 	"numDropped AC 3" 	0
scalar scenarioPRJP1.node[96].wlan[0].mac 	rcvdPkFromLL:count 	579434
attr interpolationmode  none
attr source  packetReceivedFromLower
attr title  "packets received from lower layer, count"
scalar scenarioPRJP1.node[96].wlan[0].mac 	rcvdPkFromLL:sum(packetBytes) 	78194604
attr interpolationmode  none
attr source  packetReceivedFromLower
attr title  "packets received from lower layer, sum(packetBytes)"
scalar scenarioPRJP1.node[96].wlan[0].mac 	sentDownPk:count 	86432
attr interpolationmode  none
attr source  packetSentToLower
attr title  "packets sent to lower layer, count"
scalar scenarioPRJP1.node[96].wlan[0].mac 	sentDownPk:sum(packetBytes) 	11873830
attr interpolationmode  none
attr source  packetSentToLower
attr title  "packets sent to lower layer, sum(packetBytes)"
scalar scenarioPRJP1.node[96].wlan[0].mac 	rcvdPkFromHL:count 	59914
attr interpolationmode  none
attr source  packetReceivedFromUpper
attr title  "packets received from higher layer, count"
scalar scenarioPRJP1.node[96].wlan[0].mac 	rcvdPkFromHL:sum(packetBytes) 	7246124
attr interpolationmode  none
attr source  packetReceivedFromUpper
attr title  "packets received from higher layer, sum(packetBytes)"
scalar scenarioPRJP1.node[96].wlan[0].mac 	passedUpPk:count 	246659
attr interpolationmode  none
attr source  packetSentToUpper
attr title  "packets passed to higher layer, count"
scalar scenarioPRJP1.node[96].wlan[0].mac 	passedUpPk:sum(packetBytes) 	23211404
attr interpolationmode  none
attr source  packetSentToUpper
attr title  "packets passed to higher layer, sum(packetBytes)"
statistic scenarioPRJP1.node[96].wlan[0].radio 	radioChannel:histogram
field count 1
field mean 3
field stddev -nan
field sum 3
field sqrsum 9
field min 3
field max 3
attr interpolationmode  sample-hold
attr source  radioChannelChanged
attr title  "Radio channel, histogram"
bin	-INF	0
bin	2	0
bin	3	1
bin	4	0
scalar scenarioPRJP1.node[96].wlan[0].radio 	transmissionState:count 	345728
attr interpolationmode  sample-hold
attr source  transmissionStateChanged
attr title  "Radio transmission state, count"
scalar scenarioPRJP1.node[96].wlan[0].radio 	receptionState:count 	2142709
attr interpolationmode  sample-hold
attr source  receptionStateChanged
attr title  "Radio reception state, count"
scalar scenarioPRJP1.node[96].wlan[0].radio 	radioMode:count 	172866
attr interpolationmode  sample-hold
attr source  radioModeChanged
attr title  "Radio mode, count"
statistic scenarioPRJP1.node[96].wlan[0].radio 	symbolErrorRate:histogram
field count 0
field mean -nan
field stddev -nan
field sum 0
field sqrsum 0
field min -nan
field max -nan
attr source  symbolErrorRate
attr title  "Symbol error rate, histogram"
bin	-INF	0
bin	-0.5	0
bin	-0.46666666666667	0
bin	-0.43333333333333	0
bin	-0.4	0
bin	-0.36666666666667	0
bin	-0.33333333333333	0
bin	-0.3	0
bin	-0.26666666666667	0
bin	-0.23333333333333	0
bin	-0.2	0
bin	-0.16666666666667	0
bin	-0.13333333333333	0
bin	-0.1	0
bin	-0.066666666666667	0
bin	-0.033333333333333	0
bin	0	0
bin	0.033333333333333	0
bin	0.066666666666667	0
bin	0.1	0
bin	0.13333333333333	0
bin	0.16666666666667	0
bin	0.2	0
bin	0.23333333333333	0
bin	0.26666666666667	0
bin	0.3	0
bin	0.33333333333333	0
bin	0.36666666666667	0
bin	0.4	0
bin	0.43333333333333	0
bin	0.46666666666667	0
bin	0.5	0
statistic scenarioPRJP1.node[96].wlan[0].radio 	bitErrorRate:histogram
field count 0
field mean -nan
field stddev -nan
field sum 0
field sqrsum 0
field min -nan
field max -nan
attr source  bitErrorRate
attr title  "Bit error rate, histogram"
bin	-INF	0
bin	-0.5	0
bin	-0.46666666666667	0
bin	-0.43333333333333	0
bin	-0.4	0
bin	-0.36666666666667	0
bin	-0.33333333333333	0
bin	-0.3	0
bin	-0.26666666666667	0
bin	-0.23333333333333	0
bin	-0.2	0
bin	-0.16666666666667	0
bin	-0.13333333333333	0
bin	-0.1	0
bin	-0.066666666666667	0
bin	-0.033333333333333	0
bin	0	0
bin	0.033333333333333	0
bin	0.066666666666667	0
bin	0.1	0
bin	0.13333333333333	0
bin	0.16666666666667	0
bin	0.2	0
bin	0.23333333333333	0
bin	0.26666666666667	0
bin	0.3	0
bin	0.33333333333333	0
bin	0.36666666666667	0
bin	0.4	0
bin	0.43333333333333	0
bin	0.46666666666667	0
bin	0.5	0
statistic scenarioPRJP1.node[96].wlan[0].radio 	packetErrorRate:histogram
field count 579434
field mean 0.1279499774332
field stddev 0.32457206116284
field sum 74138.56722403
field sqrsum 70527.569516014
field min 0
field max 1
attr source  packetErrorRate
attr title  "Packet error rate, histogram"
bin	-INF	0
bin	-0.5	0
bin	-0.43333333333333	0
bin	-0.36666666666667	0
bin	-0.3	0
bin	-0.23333333333333	0
bin	-0.16666666666667	0
bin	-0.1	0
bin	-0.033333333333333	490180
bin	0.033333333333333	6414
bin	0.1	2928
bin	0.16666666666667	2045
bin	0.23333333333333	1512
bin	0.3	1298
bin	0.36666666666667	1131
bin	0.43333333333333	1027
bin	0.5	962
bin	0.56666666666667	908
bin	0.63333333333333	900
bin	0.7	927
bin	0.76666666666667	1047
bin	0.83333333333333	1284
bin	0.9	1871
bin	0.96666666666667	65000
bin	1.0333333333333	0
bin	1.1	0
bin	1.1666666666667	0
bin	1.2333333333333	0
bin	1.3	0
bin	1.3666666666667	0
bin	1.4333333333333	0
bin	1.5	0
statistic scenarioPRJP1.node[96].wlan[0].radio 	minSNIR:histogram
field count 579434
field mean 24839.309802267
field stddev 170061.76816037
field sum 14392740635.967
field sqrsum 1.7115290427833e+16
field min 0.00013063219474136
field max 12007087.163225
attr source  minSNIR
attr title  "Min SNIR, histogram"
bin	-INF	0
bin	-1435.5851256844	0
bin	-1244.0187191938	0
bin	-1052.4523127031	0
bin	-860.88590621245	0
bin	-669.31949972179	0
bin	-477.75309323113	0
bin	-286.18668674047	0
bin	-94.620280249812	350709
bin	96.946126240847	30937
bin	288.5125327315	33983
bin	480.07893922216	18939
bin	671.64534571282	11971
bin	863.21175220348	9347
bin	1054.7781586941	7676
bin	1246.3445651848	5780
bin	1437.9109716755	4564
bin	1629.4773781661	4248
bin	1821.0437846568	3884
bin	2012.6101911474	3533
bin	2204.1765976381	2795
bin	2395.7430041287	2718
bin	2587.3094106194	2434
bin	2778.8758171101	2176
bin	2970.4422236007	2040
bin	3162.0086300914	1920
bin	3353.575036582	1560
bin	3545.1414430727	1367
bin	3736.7078495634	1279
bin	3928.274256054	1119
bin	4119.8406625447	1247
bin	4311.4070690353	73208
scalar scenarioPRJP1.node[96].lo0.lo 	droppedPkBitError:count 	0
attr interpolationmode  none
attr source  dropPkBitError
attr title  "packets dropped/bit error, count"
scalar scenarioPRJP1.node[96].lo0.lo 	droppedPkBitError:sum(packetBytes) 	0
attr interpolationmode  none
attr source  dropPkBitError
attr title  "packets dropped/bit error, sum(packetBytes)"
scalar scenarioPRJP1.node[96].lo0.lo 	rcvdPkFromHL:count 	2
attr interpolationmode  none
attr source  packetReceivedFromUpper
attr title  "packets received from higher layer, count"
scalar scenarioPRJP1.node[96].lo0.lo 	rcvdPkFromHL:sum(packetBytes) 	112
attr interpolationmode  none
attr source  packetReceivedFromUpper
attr title  "packets received from higher layer, sum(packetBytes)"
scalar scenarioPRJP1.node[96].lo0.lo 	passedUpPk:count 	2
attr interpolationmode  none
attr source  packetSentToUpper
attr title  "packets passed to higher layer, count"
scalar scenarioPRJP1.node[96].lo0.lo 	passedUpPk:sum(packetBytes) 	112
attr interpolationmode  none
attr source  packetSentToUpper
attr title  "packets passed to higher layer, sum(packetBytes)"
