version 2
run OLSR-ETX-TRG-10n-34-20150818-16:08:25-2323
attr configname OLSR-ETX-TRG-10n
attr datetime 20150818-16:08:25
attr experiment OLSR-ETX-TRG-10n
attr inifile omnetpp.ini
attr iterationvars ""
attr iterationvars2 $repetition=34
attr measurement ""
attr network Prj_Part1_propag.scenarioPRJP1
attr processid 2323
attr repetition 34
attr replication #34
attr resultdir results
attr runnumber 34
attr seedset 34

scalar scenarioPRJP1.radioMedium.propagation 	"Arrival computation count" 	282307
scalar scenarioPRJP1.radioMedium 	"transmission count" 	31373
scalar scenarioPRJP1.radioMedium 	"radio frame send count" 	282307
scalar scenarioPRJP1.radioMedium 	"reception computation count" 	281281
scalar scenarioPRJP1.radioMedium 	"interference computation count" 	860831
scalar scenarioPRJP1.radioMedium 	"reception decision computation count" 	24998
scalar scenarioPRJP1.radioMedium 	"listening decision computation count" 	557786
scalar scenarioPRJP1.radioMedium 	"reception cache hit" 	71.359755141439
attr unit  %
scalar scenarioPRJP1.radioMedium 	"interference cache hit" 	50
attr unit  %
scalar scenarioPRJP1.radioMedium 	"noise cache hit" 	0
attr unit  %
scalar scenarioPRJP1.radioMedium 	"snir cache hit" 	0
attr unit  %
scalar scenarioPRJP1.radioMedium 	"reception decision cache hit" 	0
attr unit  %
scalar scenarioPRJP1.node[0].app 	"Total sent" 	2607
scalar scenarioPRJP1.node[0].app 	"Total received" 	75
scalar scenarioPRJP1.node[0].app 	"Total deleted" 	0
scalar scenarioPRJP1.node[0].app 	dropPk:count 	0
attr interpolationmode  none
attr source  dropPk
attr title  "packets dropped, count"
scalar scenarioPRJP1.node[0].app 	dropPk:sum(packetBytes) 	0
attr interpolationmode  none
attr source  dropPk
attr title  "packets dropped, sum(packetBytes)"
scalar scenarioPRJP1.node[0].app 	outOfOrderPk:count 	0
attr interpolationmode  none
attr source  outOfOrderPk
attr title  "packets received out of order, count"
scalar scenarioPRJP1.node[0].app 	outOfOrderPk:sum(packetBytes) 	0
attr interpolationmode  none
attr source  outOfOrderPk
attr title  "packets received out of order, sum(packetBytes)"
scalar scenarioPRJP1.node[0].app 	rcvdPk:count 	75
attr interpolationmode  none
attr source  rcvdPk
attr title  "packets received, count"
scalar scenarioPRJP1.node[0].app 	rcvdPk:sum(packetBytes) 	38400
attr interpolationmode  none
attr source  rcvdPk
attr title  "packets received, sum(packetBytes)"
statistic scenarioPRJP1.node[0].app 	endToEndDelay:histogram
field count 75
field mean 0.00132491650832
field stddev 0.0011057456633102
field sum 0.099368738124
field sqrsum 0.00022213311847418
field min 0.000945532284
field max 0.009598698731
attr interpolationmode  none
attr source  messageAge(rcvdPk)
attr title  "delay, histogram"
attr unit  s
bin	-INF	0
bin	-0.0033810509395	0
bin	-0.0028041731763667	0
bin	-0.0022272954132333	0
bin	-0.0016504176501	0
bin	-0.0010735398869667	0
bin	-0.00049666212383333	0
bin	8.0215639299999e-05	0
bin	0.00065709340243333	62
bin	0.0012339711655667	4
bin	0.0018108489287	7
bin	0.0023877266918333	0
bin	0.0029646044549667	0
bin	0.0035414822181	0
bin	0.0041183599812333	0
bin	0.0046952377443667	1
bin	0.0052721155075	0
bin	0.0058489932706333	0
bin	0.0064258710337667	0
bin	0.0070027487969	0
bin	0.0075796265600333	0
bin	0.0081565043231667	0
bin	0.0087333820863	0
bin	0.0093102598494333	1
bin	0.0098871376125667	0
bin	0.0104640153757	0
bin	0.011040893138833	0
bin	0.011617770901967	0
bin	0.0121946486651	0
bin	0.012771526428233	0
bin	0.013348404191367	0
bin	0.0139252819545	0
scalar scenarioPRJP1.node[0].app 	sentPk:count 	2607
attr interpolationmode  none
attr source  sentPk
attr title  "packets sent, count"
scalar scenarioPRJP1.node[0].app 	sentPk:sum(packetBytes) 	1334784
attr interpolationmode  none
attr source  sentPk
attr title  "packets sent, sum(packetBytes)"
scalar scenarioPRJP1.node[0].udp 	droppedPkBadChecksum:count 	0
attr interpolationmode  none
attr title  "packets dropped (checksum error), count"
scalar scenarioPRJP1.node[0].udp 	droppedPkWrongPort:count 	0
attr interpolationmode  none
attr title  "packets dropped (wrong port), count"
scalar scenarioPRJP1.node[0].udp 	passedUpPk:count 	75
attr interpolationmode  none
attr title  "packets passed up, count"
scalar scenarioPRJP1.node[0].udp 	rcvdPk:count 	75
attr interpolationmode  none
attr source  rcvdPk
attr title  "packets received, count"
scalar scenarioPRJP1.node[0].udp 	rcvdPk:sum(packetBytes) 	39000
attr interpolationmode  none
attr source  rcvdPk
attr title  "packets received, sum(packetBytes)"
scalar scenarioPRJP1.node[0].udp 	sentPk:count 	2607
attr interpolationmode  none
attr source  sentPk
attr title  "packets sent, count"
scalar scenarioPRJP1.node[0].udp 	sentPk:sum(packetBytes) 	1355640
attr interpolationmode  none
attr source  sentPk
attr title  "packets sent, sum(packetBytes)"
scalar scenarioPRJP1.node[0].networkLayer.arp 	failedARPResolution:count 	10
attr title  "ARP failed resolutions, count"
scalar scenarioPRJP1.node[0].networkLayer.arp 	completedARPResolution:count 	12
attr title  "ARP completed resolutions, count"
scalar scenarioPRJP1.node[0].networkLayer.arp 	initiatedARPResolution:count 	18
attr title  "ARP initiated resolutions, count"
scalar scenarioPRJP1.node[0].networkLayer.arp 	sentReply:count 	4
attr title  "ARP replies sent, count"
scalar scenarioPRJP1.node[0].networkLayer.arp 	sentReq:count 	39
attr title  "ARP request sent, count"
scalar scenarioPRJP1.node[0].mobility 	startTime 	0.1
scalar scenarioPRJP1.node[0].mobility 	totalTime 	949.9
scalar scenarioPRJP1.node[0].mobility 	stopTime 	950
scalar scenarioPRJP1.node[0].mobility 	minSpeed 	2.4756009137333e-13
scalar scenarioPRJP1.node[0].mobility 	maxSpeed 	18.229268982979
scalar scenarioPRJP1.node[0].mobility 	totalDistance 	8935.8951634754
scalar scenarioPRJP1.node[0].mobility 	totalCO2Emission 	2428.7234935931
scalar scenarioPRJP1.node[0].wlan.mgmt 	dataQueueLen:max 	0
attr interpolationmode  sample-hold
attr title  "data queue length, max"
scalar scenarioPRJP1.node[0].wlan.mgmt 	dataQueueLen:timeavg 	0
attr interpolationmode  sample-hold
attr title  "data queue length, timeavg"
scalar scenarioPRJP1.node[0].wlan.mgmt 	dropPkByQueue:count 	0
attr interpolationmode  none
attr source  dropPkByQueue
attr title  "packets dropped by queue, count"
scalar scenarioPRJP1.node[0].wlan.mgmt 	dropPkByQueue:sum(packetBytes) 	0
attr interpolationmode  none
attr source  dropPkByQueue
attr title  "packets dropped by queue, sum(packetBytes)"
scalar scenarioPRJP1.node[0].wlan.mac 	"number of received packets" 	352
scalar scenarioPRJP1.node[0].wlan.mac 	"number of collisions" 	20
scalar scenarioPRJP1.node[0].wlan.mac 	"number of internal collisions" 	0
scalar scenarioPRJP1.node[0].wlan.mac 	"number of retry for AC 0" 	1122
scalar scenarioPRJP1.node[0].wlan.mac 	"number of retry for AC 1" 	0
scalar scenarioPRJP1.node[0].wlan.mac 	"number of retry for AC 2" 	0
scalar scenarioPRJP1.node[0].wlan.mac 	"number of retry for AC 3" 	0
scalar scenarioPRJP1.node[0].wlan.mac 	"sent and received bits" 	12218112
scalar scenarioPRJP1.node[0].wlan.mac 	"sent packet within AC 0" 	65
scalar scenarioPRJP1.node[0].wlan.mac 	"sent packet within AC 1" 	4
scalar scenarioPRJP1.node[0].wlan.mac 	"sent packet within AC 2" 	0
scalar scenarioPRJP1.node[0].wlan.mac 	"sent packet within AC 3" 	0
scalar scenarioPRJP1.node[0].wlan.mac 	"sent in TXOP " 	0
scalar scenarioPRJP1.node[0].wlan.mac 	"sentWithoutRetry AC 0" 	65
scalar scenarioPRJP1.node[0].wlan.mac 	"sentWithoutRetry AC 1" 	4
scalar scenarioPRJP1.node[0].wlan.mac 	"sentWithoutRetry AC 2" 	0
scalar scenarioPRJP1.node[0].wlan.mac 	"sentWithoutRetry AC 3" 	0
scalar scenarioPRJP1.node[0].wlan.mac 	"numGivenUp AC 0" 	187
scalar scenarioPRJP1.node[0].wlan.mac 	"numGivenUp AC 1" 	0
scalar scenarioPRJP1.node[0].wlan.mac 	"numGivenUp AC 2" 	0
scalar scenarioPRJP1.node[0].wlan.mac 	"numGivenUp AC 3" 	0
scalar scenarioPRJP1.node[0].wlan.mac 	"numDropped AC 0" 	0
scalar scenarioPRJP1.node[0].wlan.mac 	"numDropped AC 1" 	0
scalar scenarioPRJP1.node[0].wlan.mac 	"numDropped AC 2" 	0
scalar scenarioPRJP1.node[0].wlan.mac 	"numDropped AC 3" 	0
scalar scenarioPRJP1.node[0].wlan.mac 	rcvdPkFromLL:count 	1701
attr interpolationmode  none
attr source  packetReceivedFromLower
attr title  "packets received from lower layer, count"
scalar scenarioPRJP1.node[0].wlan.mac 	rcvdPkFromLL:sum(packetBytes) 	894550
attr interpolationmode  none
attr source  packetReceivedFromLower
attr title  "packets received from lower layer, sum(packetBytes)"
scalar scenarioPRJP1.node[0].wlan.mac 	sentDownPk:count 	3167
attr interpolationmode  none
attr source  packetSentToLower
attr title  "packets sent to lower layer, count"
scalar scenarioPRJP1.node[0].wlan.mac 	sentDownPk:sum(packetBytes) 	2275424
attr interpolationmode  none
attr source  packetSentToLower
attr title  "packets sent to lower layer, sum(packetBytes)"
scalar scenarioPRJP1.node[0].wlan.mac 	rcvdPkFromHL:count 	1693
attr interpolationmode  none
attr source  packetReceivedFromUpper
attr title  "packets received from higher layer, count"
scalar scenarioPRJP1.node[0].wlan.mac 	rcvdPkFromHL:sum(packetBytes) 	1633440
attr interpolationmode  none
attr source  packetReceivedFromUpper
attr title  "packets received from higher layer, sum(packetBytes)"
scalar scenarioPRJP1.node[0].wlan.mac 	passedUpPk:count 	619
attr interpolationmode  none
attr source  packetSentToUpper
attr title  "packets passed to higher layer, count"
scalar scenarioPRJP1.node[0].wlan.mac 	passedUpPk:sum(packetBytes) 	594796
attr interpolationmode  none
attr source  packetSentToUpper
attr title  "packets passed to higher layer, sum(packetBytes)"
statistic scenarioPRJP1.node[0].wlan.radio 	radioChannel:histogram
field count 1
field mean 3
field stddev -nan
field sum 3
field sqrsum 9
field min 3
field max 3
attr interpolationmode  sample-hold
attr source  radioChannelChanged
attr title  "Radio channel, histogram"
bin	-INF	0
bin	2	0
bin	3	1
bin	4	0
scalar scenarioPRJP1.node[0].wlan.radio 	transmissionState:count 	12668
attr interpolationmode  sample-hold
attr source  transmissionStateChanged
attr title  "Radio transmission state, count"
scalar scenarioPRJP1.node[0].wlan.radio 	receptionState:count 	9743
attr interpolationmode  sample-hold
attr source  receptionStateChanged
attr title  "Radio reception state, count"
scalar scenarioPRJP1.node[0].wlan.radio 	radioMode:count 	6336
attr interpolationmode  sample-hold
attr source  radioModeChanged
attr title  "Radio mode, count"
statistic scenarioPRJP1.node[0].wlan.radio 	symbolErrorRate:histogram
field count 0
field mean -nan
field stddev -nan
field sum 0
field sqrsum 0
field min -nan
field max -nan
attr source  symbolErrorRate
attr title  "Symbol error rate, histogram"
bin	-INF	0
bin	-0.5	0
bin	-0.46666666666667	0
bin	-0.43333333333333	0
bin	-0.4	0
bin	-0.36666666666667	0
bin	-0.33333333333333	0
bin	-0.3	0
bin	-0.26666666666667	0
bin	-0.23333333333333	0
bin	-0.2	0
bin	-0.16666666666667	0
bin	-0.13333333333333	0
bin	-0.1	0
bin	-0.066666666666667	0
bin	-0.033333333333333	0
bin	0	0
bin	0.033333333333333	0
bin	0.066666666666667	0
bin	0.1	0
bin	0.13333333333333	0
bin	0.16666666666667	0
bin	0.2	0
bin	0.23333333333333	0
bin	0.26666666666667	0
bin	0.3	0
bin	0.33333333333333	0
bin	0.36666666666667	0
bin	0.4	0
bin	0.43333333333333	0
bin	0.46666666666667	0
bin	0.5	0
statistic scenarioPRJP1.node[0].wlan.radio 	bitErrorRate:histogram
field count 0
field mean -nan
field stddev -nan
field sum 0
field sqrsum 0
field min -nan
field max -nan
attr source  bitErrorRate
attr title  "Bit error rate, histogram"
bin	-INF	0
bin	-0.5	0
bin	-0.46666666666667	0
bin	-0.43333333333333	0
bin	-0.4	0
bin	-0.36666666666667	0
bin	-0.33333333333333	0
bin	-0.3	0
bin	-0.26666666666667	0
bin	-0.23333333333333	0
bin	-0.2	0
bin	-0.16666666666667	0
bin	-0.13333333333333	0
bin	-0.1	0
bin	-0.066666666666667	0
bin	-0.033333333333333	0
bin	0	0
bin	0.033333333333333	0
bin	0.066666666666667	0
bin	0.1	0
bin	0.13333333333333	0
bin	0.16666666666667	0
bin	0.2	0
bin	0.23333333333333	0
bin	0.26666666666667	0
bin	0.3	0
bin	0.33333333333333	0
bin	0.36666666666667	0
bin	0.4	0
bin	0.43333333333333	0
bin	0.46666666666667	0
bin	0.5	0
statistic scenarioPRJP1.node[0].wlan.radio 	packetErrorRate:histogram
field count 1701
field mean 0.011397392470764
field stddev 0.10509442157939
field sum 19.386964592769
field sqrsum 18.997184504363
field min 0
field max 1
attr source  packetErrorRate
attr title  "Packet error rate, histogram"
bin	-INF	0
bin	-0.5	0
bin	-0.46666666666667	0
bin	-0.43333333333333	0
bin	-0.4	0
bin	-0.36666666666667	0
bin	-0.33333333333333	0
bin	-0.3	0
bin	-0.26666666666667	0
bin	-0.23333333333333	0
bin	-0.2	0
bin	-0.16666666666667	0
bin	-0.13333333333333	0
bin	-0.1	0
bin	-0.066666666666667	0
bin	-0.033333333333333	0
bin	0	1680
bin	0.033333333333333	2
bin	0.066666666666667	0
bin	0.1	0
bin	0.13333333333333	0
bin	0.16666666666667	0
bin	0.2	0
bin	0.23333333333333	0
bin	0.26666666666667	0
bin	0.3	0
bin	0.33333333333333	0
bin	0.36666666666667	0
bin	0.4	0
bin	0.43333333333333	0
bin	0.46666666666667	0
bin	0.5	19
statistic scenarioPRJP1.node[0].wlan.radio 	minSNIR:histogram
field count 1701
field mean 2365.2070159047
field stddev 6866.6998058477
field sum 4023217.134054
field sqrsum 89673403972.142
field min 0.56984615313182
field max 83670.314892111
attr source  minSNIR
attr title  "Min SNIR, histogram"
bin	-INF	0
bin	-11963.50947592	0
bin	-10350.612851938	0
bin	-8737.7162279561	0
bin	-7124.8196039742	0
bin	-5511.9229799923	0
bin	-3899.0263560104	0
bin	-2286.1297320285	0
bin	-673.23310804663	1302
bin	939.66351593527	123
bin	2552.5601399172	61
bin	4165.4567638991	67
bin	5778.353387881	17
bin	7391.2500118629	14
bin	9004.1466358448	10
bin	10617.043259827	5
bin	12229.939883809	6
bin	13842.83650779	6
bin	15455.733131772	7
bin	17068.629755754	15
bin	18681.526379736	14
bin	20294.423003718	6
bin	21907.3196277	3
bin	23520.216251682	9
bin	25133.112875664	2
bin	26746.009499646	2
bin	28358.906123628	3
bin	29971.802747609	4
bin	31584.699371591	1
bin	33197.595995573	2
bin	34810.492619555	2
bin	36423.389243537	20
scalar scenarioPRJP1.node[0].lo0.lo 	droppedPkBitError:count 	0
attr interpolationmode  none
attr source  dropPkBitError
attr title  "packets dropped/bit error, count"
scalar scenarioPRJP1.node[0].lo0.lo 	droppedPkBitError:sum(packetBytes) 	0
attr interpolationmode  none
attr source  dropPkBitError
attr title  "packets dropped/bit error, sum(packetBytes)"
scalar scenarioPRJP1.node[0].lo0.lo 	rcvdPkFromHL:count 	0
attr interpolationmode  none
attr source  packetReceivedFromUpper
attr title  "packets received from higher layer, count"
scalar scenarioPRJP1.node[0].lo0.lo 	rcvdPkFromHL:sum(packetBytes) 	0
attr interpolationmode  none
attr source  packetReceivedFromUpper
attr title  "packets received from higher layer, sum(packetBytes)"
scalar scenarioPRJP1.node[0].lo0.lo 	passedUpPk:count 	0
attr interpolationmode  none
attr source  packetSentToUpper
attr title  "packets passed to higher layer, count"
scalar scenarioPRJP1.node[0].lo0.lo 	passedUpPk:sum(packetBytes) 	0
attr interpolationmode  none
attr source  packetSentToUpper
attr title  "packets passed to higher layer, sum(packetBytes)"
scalar scenarioPRJP1.node[5].app 	"Total sent" 	2608
scalar scenarioPRJP1.node[5].app 	"Total received" 	74
scalar scenarioPRJP1.node[5].app 	"Total deleted" 	0
scalar scenarioPRJP1.node[5].app 	dropPk:count 	0
attr interpolationmode  none
attr source  dropPk
attr title  "packets dropped, count"
scalar scenarioPRJP1.node[5].app 	dropPk:sum(packetBytes) 	0
attr interpolationmode  none
attr source  dropPk
attr title  "packets dropped, sum(packetBytes)"
scalar scenarioPRJP1.node[5].app 	outOfOrderPk:count 	0
attr interpolationmode  none
attr source  outOfOrderPk
attr title  "packets received out of order, count"
scalar scenarioPRJP1.node[5].app 	outOfOrderPk:sum(packetBytes) 	0
attr interpolationmode  none
attr source  outOfOrderPk
attr title  "packets received out of order, sum(packetBytes)"
scalar scenarioPRJP1.node[5].app 	rcvdPk:count 	74
attr interpolationmode  none
attr source  rcvdPk
attr title  "packets received, count"
scalar scenarioPRJP1.node[5].app 	rcvdPk:sum(packetBytes) 	37888
attr interpolationmode  none
attr source  rcvdPk
attr title  "packets received, sum(packetBytes)"
statistic scenarioPRJP1.node[5].app 	endToEndDelay:histogram
field count 74
field mean 0.015765508368
field stddev 0.11869733078945
field sum 1.166647619232
field sqrsum 1.046893905371
field min 0.000945094579
field max 1.02253101229
attr interpolationmode  none
attr source  messageAge(rcvdPk)
attr title  "delay, histogram"
attr unit  s
bin	-INF	0
bin	-0.5098478642765	0
bin	-0.4417421364291	0
bin	-0.3736364085817	0
bin	-0.3055306807343	0
bin	-0.2374249528869	0
bin	-0.1693192250395	0
bin	-0.1012134971921	0
bin	-0.0331077693447	73
bin	0.0349979585027	0
bin	0.1031036863501	0
bin	0.1712094141975	0
bin	0.2393151420449	0
bin	0.3074208698923	0
bin	0.3755265977397	0
bin	0.4436323255871	0
bin	0.5117380534345	0
bin	0.5798437812819	0
bin	0.6479495091293	0
bin	0.7160552369767	0
bin	0.7841609648241	0
bin	0.8522666926715	0
bin	0.9203724205189	0
bin	0.9884781483663	1
bin	1.0565838762137	0
bin	1.1246896040611	0
bin	1.1927953319085	0
bin	1.2609010597559	0
bin	1.3290067876033	0
bin	1.3971125154507	0
bin	1.4652182432981	0
bin	1.5333239711455	0
scalar scenarioPRJP1.node[5].app 	sentPk:count 	2608
attr interpolationmode  none
attr source  sentPk
attr title  "packets sent, count"
scalar scenarioPRJP1.node[5].app 	sentPk:sum(packetBytes) 	1335296
attr interpolationmode  none
attr source  sentPk
attr title  "packets sent, sum(packetBytes)"
scalar scenarioPRJP1.node[5].udp 	droppedPkBadChecksum:count 	0
attr interpolationmode  none
attr title  "packets dropped (checksum error), count"
scalar scenarioPRJP1.node[5].udp 	droppedPkWrongPort:count 	0
attr interpolationmode  none
attr title  "packets dropped (wrong port), count"
scalar scenarioPRJP1.node[5].udp 	passedUpPk:count 	74
attr interpolationmode  none
attr title  "packets passed up, count"
scalar scenarioPRJP1.node[5].udp 	rcvdPk:count 	74
attr interpolationmode  none
attr source  rcvdPk
attr title  "packets received, count"
scalar scenarioPRJP1.node[5].udp 	rcvdPk:sum(packetBytes) 	38480
attr interpolationmode  none
attr source  rcvdPk
attr title  "packets received, sum(packetBytes)"
scalar scenarioPRJP1.node[5].udp 	sentPk:count 	2608
attr interpolationmode  none
attr source  sentPk
attr title  "packets sent, count"
scalar scenarioPRJP1.node[5].udp 	sentPk:sum(packetBytes) 	1356160
attr interpolationmode  none
attr source  sentPk
attr title  "packets sent, sum(packetBytes)"
scalar scenarioPRJP1.node[5].networkLayer.arp 	failedARPResolution:count 	1
attr title  "ARP failed resolutions, count"
scalar scenarioPRJP1.node[5].networkLayer.arp 	completedARPResolution:count 	18
attr title  "ARP completed resolutions, count"
scalar scenarioPRJP1.node[5].networkLayer.arp 	initiatedARPResolution:count 	12
attr title  "ARP initiated resolutions, count"
scalar scenarioPRJP1.node[5].networkLayer.arp 	sentReply:count 	5
attr title  "ARP replies sent, count"
scalar scenarioPRJP1.node[5].networkLayer.arp 	sentReq:count 	14
attr title  "ARP request sent, count"
scalar scenarioPRJP1.node[5].mobility 	startTime 	2.5
scalar scenarioPRJP1.node[5].mobility 	totalTime 	947.5
scalar scenarioPRJP1.node[5].mobility 	stopTime 	950
scalar scenarioPRJP1.node[5].mobility 	minSpeed 	2.4761508122203e-13
scalar scenarioPRJP1.node[5].mobility 	maxSpeed 	18.355765363348
scalar scenarioPRJP1.node[5].mobility 	totalDistance 	9813.7182501428
scalar scenarioPRJP1.node[5].mobility 	totalCO2Emission 	2602.4852808114
scalar scenarioPRJP1.node[5].wlan.mgmt 	dataQueueLen:max 	0
attr interpolationmode  sample-hold
attr title  "data queue length, max"
scalar scenarioPRJP1.node[5].wlan.mgmt 	dataQueueLen:timeavg 	0
attr interpolationmode  sample-hold
attr title  "data queue length, timeavg"
scalar scenarioPRJP1.node[5].wlan.mgmt 	dropPkByQueue:count 	0
attr interpolationmode  none
attr source  dropPkByQueue
attr title  "packets dropped by queue, count"
scalar scenarioPRJP1.node[5].wlan.mgmt 	dropPkByQueue:sum(packetBytes) 	0
attr interpolationmode  none
attr source  dropPkByQueue
attr title  "packets dropped by queue, sum(packetBytes)"
scalar scenarioPRJP1.node[5].wlan.mac 	"number of received packets" 	311
scalar scenarioPRJP1.node[5].wlan.mac 	"number of collisions" 	16
scalar scenarioPRJP1.node[5].wlan.mac 	"number of internal collisions" 	0
scalar scenarioPRJP1.node[5].wlan.mac 	"number of retry for AC 0" 	873
scalar scenarioPRJP1.node[5].wlan.mac 	"number of retry for AC 1" 	0
scalar scenarioPRJP1.node[5].wlan.mac 	"number of retry for AC 2" 	0
scalar scenarioPRJP1.node[5].wlan.mac 	"number of retry for AC 3" 	0
scalar scenarioPRJP1.node[5].wlan.mac 	"sent and received bits" 	12308576
scalar scenarioPRJP1.node[5].wlan.mac 	"sent packet within AC 0" 	74
scalar scenarioPRJP1.node[5].wlan.mac 	"sent packet within AC 1" 	1
scalar scenarioPRJP1.node[5].wlan.mac 	"sent packet within AC 2" 	0
scalar scenarioPRJP1.node[5].wlan.mac 	"sent packet within AC 3" 	0
scalar scenarioPRJP1.node[5].wlan.mac 	"sent in TXOP " 	0
scalar scenarioPRJP1.node[5].wlan.mac 	"sentWithoutRetry AC 0" 	73
scalar scenarioPRJP1.node[5].wlan.mac 	"sentWithoutRetry AC 1" 	1
scalar scenarioPRJP1.node[5].wlan.mac 	"sentWithoutRetry AC 2" 	0
scalar scenarioPRJP1.node[5].wlan.mac 	"sentWithoutRetry AC 3" 	0
scalar scenarioPRJP1.node[5].wlan.mac 	"numGivenUp AC 0" 	145
scalar scenarioPRJP1.node[5].wlan.mac 	"numGivenUp AC 1" 	0
scalar scenarioPRJP1.node[5].wlan.mac 	"numGivenUp AC 2" 	0
scalar scenarioPRJP1.node[5].wlan.mac 	"numGivenUp AC 3" 	0
scalar scenarioPRJP1.node[5].wlan.mac 	"numDropped AC 0" 	0
scalar scenarioPRJP1.node[5].wlan.mac 	"numDropped AC 1" 	0
scalar scenarioPRJP1.node[5].wlan.mac 	"numDropped AC 2" 	0
scalar scenarioPRJP1.node[5].wlan.mac 	"numDropped AC 3" 	0
scalar scenarioPRJP1.node[5].wlan.mac 	rcvdPkFromLL:count 	1697
attr interpolationmode  none
attr source  packetReceivedFromLower
attr title  "packets received from lower layer, count"
scalar scenarioPRJP1.node[5].wlan.mac 	rcvdPkFromLL:sum(packetBytes) 	921128
attr interpolationmode  none
attr source  packetReceivedFromLower
attr title  "packets received from lower layer, sum(packetBytes)"
scalar scenarioPRJP1.node[5].wlan.mac 	sentDownPk:count 	2824
attr interpolationmode  none
attr source  packetSentToLower
attr title  "packets sent to lower layer, count"
scalar scenarioPRJP1.node[5].wlan.mac 	sentDownPk:sum(packetBytes) 	2117006
attr interpolationmode  none
attr source  packetSentToLower
attr title  "packets sent to lower layer, sum(packetBytes)"
scalar scenarioPRJP1.node[5].wlan.mac 	rcvdPkFromHL:count 	1640
attr interpolationmode  none
attr source  packetReceivedFromUpper
attr title  "packets received from higher layer, count"
scalar scenarioPRJP1.node[5].wlan.mac 	rcvdPkFromHL:sum(packetBytes) 	1620556
attr interpolationmode  none
attr source  packetReceivedFromUpper
attr title  "packets received from higher layer, sum(packetBytes)"
scalar scenarioPRJP1.node[5].wlan.mac 	passedUpPk:count 	678
attr interpolationmode  none
attr source  packetSentToUpper
attr title  "packets passed to higher layer, count"
scalar scenarioPRJP1.node[5].wlan.mac 	passedUpPk:sum(packetBytes) 	660440
attr interpolationmode  none
attr source  packetSentToUpper
attr title  "packets passed to higher layer, sum(packetBytes)"
statistic scenarioPRJP1.node[5].wlan.radio 	radioChannel:histogram
field count 1
field mean 3
field stddev -nan
field sum 3
field sqrsum 9
field min 3
field max 3
attr interpolationmode  sample-hold
attr source  radioChannelChanged
attr title  "Radio channel, histogram"
bin	-INF	0
bin	2	0
bin	3	1
bin	4	0
scalar scenarioPRJP1.node[5].wlan.radio 	transmissionState:count 	11296
attr interpolationmode  sample-hold
attr source  transmissionStateChanged
attr title  "Radio transmission state, count"
scalar scenarioPRJP1.node[5].wlan.radio 	receptionState:count 	9043
attr interpolationmode  sample-hold
attr source  receptionStateChanged
attr title  "Radio reception state, count"
scalar scenarioPRJP1.node[5].wlan.radio 	radioMode:count 	5650
attr interpolationmode  sample-hold
attr source  radioModeChanged
attr title  "Radio mode, count"
statistic scenarioPRJP1.node[5].wlan.radio 	symbolErrorRate:histogram
field count 0
field mean -nan
field stddev -nan
field sum 0
field sqrsum 0
field min -nan
field max -nan
attr source  symbolErrorRate
attr title  "Symbol error rate, histogram"
bin	-INF	0
bin	-0.5	0
bin	-0.46666666666667	0
bin	-0.43333333333333	0
bin	-0.4	0
bin	-0.36666666666667	0
bin	-0.33333333333333	0
bin	-0.3	0
bin	-0.26666666666667	0
bin	-0.23333333333333	0
bin	-0.2	0
bin	-0.16666666666667	0
bin	-0.13333333333333	0
bin	-0.1	0
bin	-0.066666666666667	0
bin	-0.033333333333333	0
bin	0	0
bin	0.033333333333333	0
bin	0.066666666666667	0
bin	0.1	0
bin	0.13333333333333	0
bin	0.16666666666667	0
bin	0.2	0
bin	0.23333333333333	0
bin	0.26666666666667	0
bin	0.3	0
bin	0.33333333333333	0
bin	0.36666666666667	0
bin	0.4	0
bin	0.43333333333333	0
bin	0.46666666666667	0
bin	0.5	0
statistic scenarioPRJP1.node[5].wlan.radio 	bitErrorRate:histogram
field count 0
field mean -nan
field stddev -nan
field sum 0
field sqrsum 0
field min -nan
field max -nan
attr source  bitErrorRate
attr title  "Bit error rate, histogram"
bin	-INF	0
bin	-0.5	0
bin	-0.46666666666667	0
bin	-0.43333333333333	0
bin	-0.4	0
bin	-0.36666666666667	0
bin	-0.33333333333333	0
bin	-0.3	0
bin	-0.26666666666667	0
bin	-0.23333333333333	0
bin	-0.2	0
bin	-0.16666666666667	0
bin	-0.13333333333333	0
bin	-0.1	0
bin	-0.066666666666667	0
bin	-0.033333333333333	0
bin	0	0
bin	0.033333333333333	0
bin	0.066666666666667	0
bin	0.1	0
bin	0.13333333333333	0
bin	0.16666666666667	0
bin	0.2	0
bin	0.23333333333333	0
bin	0.26666666666667	0
bin	0.3	0
bin	0.33333333333333	0
bin	0.36666666666667	0
bin	0.4	0
bin	0.43333333333333	0
bin	0.46666666666667	0
bin	0.5	0
statistic scenarioPRJP1.node[5].wlan.radio 	packetErrorRate:histogram
field count 1697
field mean 0.007668933835486
field stddev 0.085521458482386
field sum 13.01418071882
field sqrsum 12.504212975035
field min 0
field max 1
attr source  packetErrorRate
attr title  "Packet error rate, histogram"
bin	-INF	0
bin	-0.5	0
bin	-0.46666666666667	0
bin	-0.43333333333333	0
bin	-0.4	0
bin	-0.36666666666667	0
bin	-0.33333333333333	0
bin	-0.3	0
bin	-0.26666666666667	0
bin	-0.23333333333333	0
bin	-0.2	0
bin	-0.16666666666667	0
bin	-0.13333333333333	0
bin	-0.1	0
bin	-0.066666666666667	0
bin	-0.033333333333333	0
bin	0	1682
bin	0.033333333333333	1
bin	0.066666666666667	0
bin	0.1	0
bin	0.13333333333333	0
bin	0.16666666666667	0
bin	0.2	0
bin	0.23333333333333	1
bin	0.26666666666667	0
bin	0.3	0
bin	0.33333333333333	0
bin	0.36666666666667	0
bin	0.4	0
bin	0.43333333333333	0
bin	0.46666666666667	0
bin	0.5	13
statistic scenarioPRJP1.node[5].wlan.radio 	minSNIR:histogram
field count 1697
field mean 4061.8836369019
field stddev 12429.800734181
field sum 6893016.5318225
field sqrsum 290030539969.79
field min 0.95312900654748
field max 149708.57197756
attr source  minSNIR
attr title  "Min SNIR, histogram"
bin	-INF	0
bin	-18356.718993807	0
bin	-15891.775589851	0
bin	-13426.832185895	0
bin	-10961.888781939	0
bin	-8496.9453779832	0
bin	-6032.0019740273	0
bin	-3567.0585700713	0
bin	-1102.1151661153	1307
bin	1362.8282378407	97
bin	3827.7716417967	61
bin	6292.7150457527	31
bin	8757.6584497086	17
bin	11222.601853665	15
bin	13687.545257621	14
bin	16152.488661577	23
bin	18617.432065533	15
bin	21082.375469489	65
bin	23547.318873445	5
bin	26012.262277401	9
bin	28477.205681357	1
bin	30942.149085312	2
bin	33407.092489268	0
bin	35872.035893224	1
bin	38336.97929718	2
bin	40801.922701136	0
bin	43266.866105092	4
bin	45731.809509048	0
bin	48196.752913004	0
bin	50661.69631696	0
bin	53126.639720916	0
bin	55591.583124872	28
scalar scenarioPRJP1.node[5].lo0.lo 	droppedPkBitError:count 	0
attr interpolationmode  none
attr source  dropPkBitError
attr title  "packets dropped/bit error, count"
scalar scenarioPRJP1.node[5].lo0.lo 	droppedPkBitError:sum(packetBytes) 	0
attr interpolationmode  none
attr source  dropPkBitError
attr title  "packets dropped/bit error, sum(packetBytes)"
scalar scenarioPRJP1.node[5].lo0.lo 	rcvdPkFromHL:count 	0
attr interpolationmode  none
attr source  packetReceivedFromUpper
attr title  "packets received from higher layer, count"
scalar scenarioPRJP1.node[5].lo0.lo 	rcvdPkFromHL:sum(packetBytes) 	0
attr interpolationmode  none
attr source  packetReceivedFromUpper
attr title  "packets received from higher layer, sum(packetBytes)"
scalar scenarioPRJP1.node[5].lo0.lo 	passedUpPk:count 	0
attr interpolationmode  none
attr source  packetSentToUpper
attr title  "packets passed to higher layer, count"
scalar scenarioPRJP1.node[5].lo0.lo 	passedUpPk:sum(packetBytes) 	0
attr interpolationmode  none
attr source  packetSentToUpper
attr title  "packets passed to higher layer, sum(packetBytes)"
scalar scenarioPRJP1.node[1].app 	"Total sent" 	2604
scalar scenarioPRJP1.node[1].app 	"Total received" 	302
scalar scenarioPRJP1.node[1].app 	"Total deleted" 	0
scalar scenarioPRJP1.node[1].app 	dropPk:count 	0
attr interpolationmode  none
attr source  dropPk
attr title  "packets dropped, count"
scalar scenarioPRJP1.node[1].app 	dropPk:sum(packetBytes) 	0
attr interpolationmode  none
attr source  dropPk
attr title  "packets dropped, sum(packetBytes)"
scalar scenarioPRJP1.node[1].app 	outOfOrderPk:count 	1
attr interpolationmode  none
attr source  outOfOrderPk
attr title  "packets received out of order, count"
scalar scenarioPRJP1.node[1].app 	outOfOrderPk:sum(packetBytes) 	512
attr interpolationmode  none
attr source  outOfOrderPk
attr title  "packets received out of order, sum(packetBytes)"
scalar scenarioPRJP1.node[1].app 	rcvdPk:count 	302
attr interpolationmode  none
attr source  rcvdPk
attr title  "packets received, count"
scalar scenarioPRJP1.node[1].app 	rcvdPk:sum(packetBytes) 	154624
attr interpolationmode  none
attr source  rcvdPk
attr title  "packets received, sum(packetBytes)"
statistic scenarioPRJP1.node[1].app 	endToEndDelay:histogram
field count 302
field mean 0.0015836166262815
field stddev 0.0028165883438484
field sum 0.478252221137
field sqrsum 0.003145252308458
field min 0.000945011014
field max 0.031820384606
attr interpolationmode  none
attr source  messageAge(rcvdPk)
attr title  "delay, histogram"
attr unit  s
bin	-INF	0
bin	0.0003594547855	0
bin	0.00043752894956667	0
bin	0.00051560311363333	0
bin	0.0005936772777	0
bin	0.00067175144176667	0
bin	0.00074982560583333	0
bin	0.0008278997699	0
bin	0.00090597393396667	54
bin	0.00098404809803333	96
bin	0.0010621222621	105
bin	0.0011401964261667	2
bin	0.0012182705902333	0
bin	0.0012963447543	2
bin	0.0013744189183667	2
bin	0.0014524930824333	2
bin	0.0015305672465	2
bin	0.0016086414105667	0
bin	0.0016867155746333	0
bin	0.0017647897387	0
bin	0.0018428639027667	1
bin	0.0019209380668333	7
bin	0.0019990122309	4
bin	0.0020770863949667	7
bin	0.0021551605590333	0
bin	0.0022332347231	1
bin	0.0023113088871667	0
bin	0.0023893830512333	0
bin	0.0024674572153	1
bin	0.0025455313793667	0
bin	0.0026236055434333	0
bin	0.0027016797075	16
scalar scenarioPRJP1.node[1].app 	sentPk:count 	2604
attr interpolationmode  none
attr source  sentPk
attr title  "packets sent, count"
scalar scenarioPRJP1.node[1].app 	sentPk:sum(packetBytes) 	1333248
attr interpolationmode  none
attr source  sentPk
attr title  "packets sent, sum(packetBytes)"
scalar scenarioPRJP1.node[1].udp 	droppedPkBadChecksum:count 	0
attr interpolationmode  none
attr title  "packets dropped (checksum error), count"
scalar scenarioPRJP1.node[1].udp 	droppedPkWrongPort:count 	0
attr interpolationmode  none
attr title  "packets dropped (wrong port), count"
scalar scenarioPRJP1.node[1].udp 	passedUpPk:count 	303
attr interpolationmode  none
attr title  "packets passed up, count"
scalar scenarioPRJP1.node[1].udp 	rcvdPk:count 	303
attr interpolationmode  none
attr source  rcvdPk
attr title  "packets received, count"
scalar scenarioPRJP1.node[1].udp 	rcvdPk:sum(packetBytes) 	157560
attr interpolationmode  none
attr source  rcvdPk
attr title  "packets received, sum(packetBytes)"
scalar scenarioPRJP1.node[1].udp 	sentPk:count 	2604
attr interpolationmode  none
attr source  sentPk
attr title  "packets sent, count"
scalar scenarioPRJP1.node[1].udp 	sentPk:sum(packetBytes) 	1354080
attr interpolationmode  none
attr source  sentPk
attr title  "packets sent, sum(packetBytes)"
scalar scenarioPRJP1.node[1].networkLayer.arp 	failedARPResolution:count 	0
attr title  "ARP failed resolutions, count"
scalar scenarioPRJP1.node[1].networkLayer.arp 	completedARPResolution:count 	27
attr title  "ARP completed resolutions, count"
scalar scenarioPRJP1.node[1].networkLayer.arp 	initiatedARPResolution:count 	10
attr title  "ARP initiated resolutions, count"
scalar scenarioPRJP1.node[1].networkLayer.arp 	sentReply:count 	10
attr title  "ARP replies sent, count"
scalar scenarioPRJP1.node[1].networkLayer.arp 	sentReq:count 	10
attr title  "ARP request sent, count"
scalar scenarioPRJP1.node[1].mobility 	startTime 	0.1
scalar scenarioPRJP1.node[1].mobility 	totalTime 	949.9
scalar scenarioPRJP1.node[1].mobility 	stopTime 	950
scalar scenarioPRJP1.node[1].mobility 	minSpeed 	2.4755157946861e-13
scalar scenarioPRJP1.node[1].mobility 	maxSpeed 	15.274030976039
scalar scenarioPRJP1.node[1].mobility 	totalDistance 	9268.5880156772
scalar scenarioPRJP1.node[1].mobility 	totalCO2Emission 	2241.2753968817
scalar scenarioPRJP1.node[1].wlan.mgmt 	dataQueueLen:max 	0
attr interpolationmode  sample-hold
attr title  "data queue length, max"
scalar scenarioPRJP1.node[1].wlan.mgmt 	dataQueueLen:timeavg 	0
attr interpolationmode  sample-hold
attr title  "data queue length, timeavg"
scalar scenarioPRJP1.node[1].wlan.mgmt 	dropPkByQueue:count 	0
attr interpolationmode  none
attr source  dropPkByQueue
attr title  "packets dropped by queue, count"
scalar scenarioPRJP1.node[1].wlan.mgmt 	dropPkByQueue:sum(packetBytes) 	0
attr interpolationmode  none
attr source  dropPkByQueue
attr title  "packets dropped by queue, sum(packetBytes)"
scalar scenarioPRJP1.node[1].wlan.mac 	"number of received packets" 	749
scalar scenarioPRJP1.node[1].wlan.mac 	"number of collisions" 	52
scalar scenarioPRJP1.node[1].wlan.mac 	"number of internal collisions" 	0
scalar scenarioPRJP1.node[1].wlan.mac 	"number of retry for AC 0" 	1087
scalar scenarioPRJP1.node[1].wlan.mac 	"number of retry for AC 1" 	6
scalar scenarioPRJP1.node[1].wlan.mac 	"number of retry for AC 2" 	0
scalar scenarioPRJP1.node[1].wlan.mac 	"number of retry for AC 3" 	0
scalar scenarioPRJP1.node[1].wlan.mac 	"sent and received bits" 	13515008
scalar scenarioPRJP1.node[1].wlan.mac 	"sent packet within AC 0" 	288
scalar scenarioPRJP1.node[1].wlan.mac 	"sent packet within AC 1" 	8
scalar scenarioPRJP1.node[1].wlan.mac 	"sent packet within AC 2" 	0
scalar scenarioPRJP1.node[1].wlan.mac 	"sent packet within AC 3" 	0
scalar scenarioPRJP1.node[1].wlan.mac 	"sent in TXOP " 	0
scalar scenarioPRJP1.node[1].wlan.mac 	"sentWithoutRetry AC 0" 	287
scalar scenarioPRJP1.node[1].wlan.mac 	"sentWithoutRetry AC 1" 	8
scalar scenarioPRJP1.node[1].wlan.mac 	"sentWithoutRetry AC 2" 	0
scalar scenarioPRJP1.node[1].wlan.mac 	"sentWithoutRetry AC 3" 	0
scalar scenarioPRJP1.node[1].wlan.mac 	"numGivenUp AC 0" 	181
scalar scenarioPRJP1.node[1].wlan.mac 	"numGivenUp AC 1" 	1
scalar scenarioPRJP1.node[1].wlan.mac 	"numGivenUp AC 2" 	0
scalar scenarioPRJP1.node[1].wlan.mac 	"numGivenUp AC 3" 	0
scalar scenarioPRJP1.node[1].wlan.mac 	"numDropped AC 0" 	0
scalar scenarioPRJP1.node[1].wlan.mac 	"numDropped AC 1" 	0
scalar scenarioPRJP1.node[1].wlan.mac 	"numDropped AC 2" 	0
scalar scenarioPRJP1.node[1].wlan.mac 	"numDropped AC 3" 	0
scalar scenarioPRJP1.node[1].wlan.mac 	rcvdPkFromLL:count 	3827
attr interpolationmode  none
attr source  packetReceivedFromLower
attr title  "packets received from lower layer, count"
scalar scenarioPRJP1.node[1].wlan.mac 	rcvdPkFromLL:sum(packetBytes) 	2176992
attr interpolationmode  none
attr source  packetReceivedFromLower
attr title  "packets received from lower layer, sum(packetBytes)"
scalar scenarioPRJP1.node[1].wlan.mac 	sentDownPk:count 	3762
attr interpolationmode  none
attr source  packetSentToLower
attr title  "packets sent to lower layer, count"
scalar scenarioPRJP1.node[1].wlan.mac 	sentDownPk:sum(packetBytes) 	2405786
attr interpolationmode  none
attr source  packetSentToLower
attr title  "packets sent to lower layer, sum(packetBytes)"
scalar scenarioPRJP1.node[1].wlan.mac 	rcvdPkFromHL:count 	1920
attr interpolationmode  none
attr source  packetReceivedFromUpper
attr title  "packets received from higher layer, count"
scalar scenarioPRJP1.node[1].wlan.mac 	rcvdPkFromHL:sum(packetBytes) 	1790140
attr interpolationmode  none
attr source  packetReceivedFromUpper
attr title  "packets received from higher layer, sum(packetBytes)"
scalar scenarioPRJP1.node[1].wlan.mac 	passedUpPk:count 	1785
attr interpolationmode  none
attr source  packetSentToUpper
attr title  "packets passed to higher layer, count"
scalar scenarioPRJP1.node[1].wlan.mac 	passedUpPk:sum(packetBytes) 	1659472
attr interpolationmode  none
attr source  packetSentToUpper
attr title  "packets passed to higher layer, sum(packetBytes)"
statistic scenarioPRJP1.node[1].wlan.radio 	radioChannel:histogram
field count 1
field mean 3
field stddev -nan
field sum 3
field sqrsum 9
field min 3
field max 3
attr interpolationmode  sample-hold
attr source  radioChannelChanged
attr title  "Radio channel, histogram"
bin	-INF	0
bin	2	0
bin	3	1
bin	4	0
scalar scenarioPRJP1.node[1].wlan.radio 	transmissionState:count 	15048
attr interpolationmode  sample-hold
attr source  transmissionStateChanged
attr title  "Radio transmission state, count"
scalar scenarioPRJP1.node[1].wlan.radio 	receptionState:count 	15191
attr interpolationmode  sample-hold
attr source  receptionStateChanged
attr title  "Radio reception state, count"
scalar scenarioPRJP1.node[1].wlan.radio 	radioMode:count 	7526
attr interpolationmode  sample-hold
attr source  radioModeChanged
attr title  "Radio mode, count"
statistic scenarioPRJP1.node[1].wlan.radio 	symbolErrorRate:histogram
field count 0
field mean -nan
field stddev -nan
field sum 0
field sqrsum 0
field min -nan
field max -nan
attr source  symbolErrorRate
attr title  "Symbol error rate, histogram"
bin	-INF	0
bin	-0.5	0
bin	-0.46666666666667	0
bin	-0.43333333333333	0
bin	-0.4	0
bin	-0.36666666666667	0
bin	-0.33333333333333	0
bin	-0.3	0
bin	-0.26666666666667	0
bin	-0.23333333333333	0
bin	-0.2	0
bin	-0.16666666666667	0
bin	-0.13333333333333	0
bin	-0.1	0
bin	-0.066666666666667	0
bin	-0.033333333333333	0
bin	0	0
bin	0.033333333333333	0
bin	0.066666666666667	0
bin	0.1	0
bin	0.13333333333333	0
bin	0.16666666666667	0
bin	0.2	0
bin	0.23333333333333	0
bin	0.26666666666667	0
bin	0.3	0
bin	0.33333333333333	0
bin	0.36666666666667	0
bin	0.4	0
bin	0.43333333333333	0
bin	0.46666666666667	0
bin	0.5	0
statistic scenarioPRJP1.node[1].wlan.radio 	bitErrorRate:histogram
field count 0
field mean -nan
field stddev -nan
field sum 0
field sqrsum 0
field min -nan
field max -nan
attr source  bitErrorRate
attr title  "Bit error rate, histogram"
bin	-INF	0
bin	-0.5	0
bin	-0.46666666666667	0
bin	-0.43333333333333	0
bin	-0.4	0
bin	-0.36666666666667	0
bin	-0.33333333333333	0
bin	-0.3	0
bin	-0.26666666666667	0
bin	-0.23333333333333	0
bin	-0.2	0
bin	-0.16666666666667	0
bin	-0.13333333333333	0
bin	-0.1	0
bin	-0.066666666666667	0
bin	-0.033333333333333	0
bin	0	0
bin	0.033333333333333	0
bin	0.066666666666667	0
bin	0.1	0
bin	0.13333333333333	0
bin	0.16666666666667	0
bin	0.2	0
bin	0.23333333333333	0
bin	0.26666666666667	0
bin	0.3	0
bin	0.33333333333333	0
bin	0.36666666666667	0
bin	0.4	0
bin	0.43333333333333	0
bin	0.46666666666667	0
bin	0.5	0
statistic scenarioPRJP1.node[1].wlan.radio 	packetErrorRate:histogram
field count 3827
field mean 0.013594219939232
field stddev 0.11169358570752
field sum 52.025079707442
field sqrsum 48.438339195364
field min 0
field max 1
attr source  packetErrorRate
attr title  "Packet error rate, histogram"
bin	-INF	0
bin	-0.5	0
bin	-0.46666666666667	0
bin	-0.43333333333333	0
bin	-0.4	0
bin	-0.36666666666667	0
bin	-0.33333333333333	0
bin	-0.3	0
bin	-0.26666666666667	0
bin	-0.23333333333333	0
bin	-0.2	0
bin	-0.16666666666667	0
bin	-0.13333333333333	0
bin	-0.1	0
bin	-0.066666666666667	0
bin	-0.033333333333333	0
bin	0	3764
bin	0.033333333333333	0
bin	0.066666666666667	2
bin	0.1	0
bin	0.13333333333333	0
bin	0.16666666666667	4
bin	0.2	1
bin	0.23333333333333	1
bin	0.26666666666667	0
bin	0.3	0
bin	0.33333333333333	0
bin	0.36666666666667	0
bin	0.4	0
bin	0.43333333333333	4
bin	0.46666666666667	0
bin	0.5	51
statistic scenarioPRJP1.node[1].wlan.radio 	minSNIR:histogram
field count 3827
field mean 110077.72992795
field stddev 228504.45097143
field sum 421267472.43428
field sqrsum 2.4614401807729e+14
field min 0.19958494038043
field max 753239.71923443
attr source  minSNIR
attr title  "Min SNIR, histogram"
bin	-INF	0
bin	-38876.549678583	0
bin	-33583.673806289	0
bin	-28290.797933995	0
bin	-22997.922061701	0
bin	-17705.046189407	0
bin	-12412.170317114	0
bin	-7119.2944448199	0
bin	-1826.4185725262	2116
bin	3466.4572997676	172
bin	8759.3331720613	128
bin	14052.209044355	113
bin	19345.084916649	137
bin	24637.960788943	42
bin	29930.836661236	41
bin	35223.71253353	24
bin	40516.588405824	7
bin	45809.464278118	36
bin	51102.340150411	9
bin	56395.216022705	19
bin	61688.091894999	4
bin	66980.967767293	16
bin	72273.843639586	18
bin	77566.71951188	25
bin	82859.595384174	11
bin	88152.471256468	6
bin	93445.347128762	11
bin	98738.223001055	11
bin	104031.09887335	4
bin	109323.97474564	9
bin	114616.85061794	19
bin	119909.72649023	849
scalar scenarioPRJP1.node[1].lo0.lo 	droppedPkBitError:count 	0
attr interpolationmode  none
attr source  dropPkBitError
attr title  "packets dropped/bit error, count"
scalar scenarioPRJP1.node[1].lo0.lo 	droppedPkBitError:sum(packetBytes) 	0
attr interpolationmode  none
attr source  dropPkBitError
attr title  "packets dropped/bit error, sum(packetBytes)"
scalar scenarioPRJP1.node[1].lo0.lo 	rcvdPkFromHL:count 	3
attr interpolationmode  none
attr source  packetReceivedFromUpper
attr title  "packets received from higher layer, count"
scalar scenarioPRJP1.node[1].lo0.lo 	rcvdPkFromHL:sum(packetBytes) 	168
attr interpolationmode  none
attr source  packetReceivedFromUpper
attr title  "packets received from higher layer, sum(packetBytes)"
scalar scenarioPRJP1.node[1].lo0.lo 	passedUpPk:count 	3
attr interpolationmode  none
attr source  packetSentToUpper
attr title  "packets passed to higher layer, count"
scalar scenarioPRJP1.node[1].lo0.lo 	passedUpPk:sum(packetBytes) 	168
attr interpolationmode  none
attr source  packetSentToUpper
attr title  "packets passed to higher layer, sum(packetBytes)"
scalar scenarioPRJP1.node[6].app 	"Total sent" 	2610
scalar scenarioPRJP1.node[6].app 	"Total received" 	122
scalar scenarioPRJP1.node[6].app 	"Total deleted" 	0
scalar scenarioPRJP1.node[6].app 	dropPk:count 	0
attr interpolationmode  none
attr source  dropPk
attr title  "packets dropped, count"
scalar scenarioPRJP1.node[6].app 	dropPk:sum(packetBytes) 	0
attr interpolationmode  none
attr source  dropPk
attr title  "packets dropped, sum(packetBytes)"
scalar scenarioPRJP1.node[6].app 	outOfOrderPk:count 	0
attr interpolationmode  none
attr source  outOfOrderPk
attr title  "packets received out of order, count"
scalar scenarioPRJP1.node[6].app 	outOfOrderPk:sum(packetBytes) 	0
attr interpolationmode  none
attr source  outOfOrderPk
attr title  "packets received out of order, sum(packetBytes)"
scalar scenarioPRJP1.node[6].app 	rcvdPk:count 	122
attr interpolationmode  none
attr source  rcvdPk
attr title  "packets received, count"
scalar scenarioPRJP1.node[6].app 	rcvdPk:sum(packetBytes) 	62464
attr interpolationmode  none
attr source  rcvdPk
attr title  "packets received, sum(packetBytes)"
statistic scenarioPRJP1.node[6].app 	endToEndDelay:histogram
field count 122
field mean 0.0081153000207377
field stddev 0.067994972301701
field sum 0.99006660253
field sqrsum 0.56745595477544
field min 0.000945011648
field max 0.751720452327
attr interpolationmode  none
attr source  messageAge(rcvdPk)
attr title  "delay, histogram"
attr unit  s
bin	-INF	0
bin	-0.3744427086915	0
bin	-0.32439101264623	0
bin	-0.27433931660097	0
bin	-0.2242876205557	0
bin	-0.17423592451043	0
bin	-0.12418422846517	0
bin	-0.0741325324199	0
bin	-0.024080836374633	120
bin	0.025970859670633	1
bin	0.0760225557159	0
bin	0.12607425176117	0
bin	0.17612594780643	0
bin	0.2261776438517	0
bin	0.27622933989697	0
bin	0.32628103594223	0
bin	0.3763327319875	0
bin	0.42638442803277	0
bin	0.47643612407803	0
bin	0.5264878201233	0
bin	0.57653951616857	0
bin	0.62659121221383	0
bin	0.6766429082591	0
bin	0.72669460430437	1
bin	0.77674630034963	0
bin	0.8267979963949	0
bin	0.87684969244017	0
bin	0.92690138848543	0
bin	0.9769530845307	0
bin	1.027004780576	0
bin	1.0770564766212	0
bin	1.1271081726665	0
scalar scenarioPRJP1.node[6].app 	sentPk:count 	2610
attr interpolationmode  none
attr source  sentPk
attr title  "packets sent, count"
scalar scenarioPRJP1.node[6].app 	sentPk:sum(packetBytes) 	1336320
attr interpolationmode  none
attr source  sentPk
attr title  "packets sent, sum(packetBytes)"
scalar scenarioPRJP1.node[6].udp 	droppedPkBadChecksum:count 	0
attr interpolationmode  none
attr title  "packets dropped (checksum error), count"
scalar scenarioPRJP1.node[6].udp 	droppedPkWrongPort:count 	0
attr interpolationmode  none
attr title  "packets dropped (wrong port), count"
scalar scenarioPRJP1.node[6].udp 	passedUpPk:count 	122
attr interpolationmode  none
attr title  "packets passed up, count"
scalar scenarioPRJP1.node[6].udp 	rcvdPk:count 	122
attr interpolationmode  none
attr source  rcvdPk
attr title  "packets received, count"
scalar scenarioPRJP1.node[6].udp 	rcvdPk:sum(packetBytes) 	63440
attr interpolationmode  none
attr source  rcvdPk
attr title  "packets received, sum(packetBytes)"
scalar scenarioPRJP1.node[6].udp 	sentPk:count 	2610
attr interpolationmode  none
attr source  sentPk
attr title  "packets sent, count"
scalar scenarioPRJP1.node[6].udp 	sentPk:sum(packetBytes) 	1357200
attr interpolationmode  none
attr source  sentPk
attr title  "packets sent, sum(packetBytes)"
scalar scenarioPRJP1.node[6].networkLayer.arp 	failedARPResolution:count 	0
attr title  "ARP failed resolutions, count"
scalar scenarioPRJP1.node[6].networkLayer.arp 	completedARPResolution:count 	20
attr title  "ARP completed resolutions, count"
scalar scenarioPRJP1.node[6].networkLayer.arp 	initiatedARPResolution:count 	6
attr title  "ARP initiated resolutions, count"
scalar scenarioPRJP1.node[6].networkLayer.arp 	sentReply:count 	7
attr title  "ARP replies sent, count"
scalar scenarioPRJP1.node[6].networkLayer.arp 	sentReq:count 	6
attr title  "ARP request sent, count"
scalar scenarioPRJP1.node[6].mobility 	startTime 	2.5
scalar scenarioPRJP1.node[6].mobility 	totalTime 	947.5
scalar scenarioPRJP1.node[6].mobility 	stopTime 	950
scalar scenarioPRJP1.node[6].mobility 	minSpeed 	2.4754394247674e-13
scalar scenarioPRJP1.node[6].mobility 	maxSpeed 	17.043986967112
scalar scenarioPRJP1.node[6].mobility 	totalDistance 	8930.6998625555
scalar scenarioPRJP1.node[6].mobility 	totalCO2Emission 	2396.573545405
scalar scenarioPRJP1.node[6].wlan.mgmt 	dataQueueLen:max 	0
attr interpolationmode  sample-hold
attr title  "data queue length, max"
scalar scenarioPRJP1.node[6].wlan.mgmt 	dataQueueLen:timeavg 	0
attr interpolationmode  sample-hold
attr title  "data queue length, timeavg"
scalar scenarioPRJP1.node[6].wlan.mgmt 	dropPkByQueue:count 	0
attr interpolationmode  none
attr source  dropPkByQueue
attr title  "packets dropped by queue, count"
scalar scenarioPRJP1.node[6].wlan.mgmt 	dropPkByQueue:sum(packetBytes) 	0
attr interpolationmode  none
attr source  dropPkByQueue
attr title  "packets dropped by queue, sum(packetBytes)"
scalar scenarioPRJP1.node[6].wlan.mac 	"number of received packets" 	327
scalar scenarioPRJP1.node[6].wlan.mac 	"number of collisions" 	25
scalar scenarioPRJP1.node[6].wlan.mac 	"number of internal collisions" 	0
scalar scenarioPRJP1.node[6].wlan.mac 	"number of retry for AC 0" 	939
scalar scenarioPRJP1.node[6].wlan.mac 	"number of retry for AC 1" 	6
scalar scenarioPRJP1.node[6].wlan.mac 	"number of retry for AC 2" 	0
scalar scenarioPRJP1.node[6].wlan.mac 	"number of retry for AC 3" 	0
scalar scenarioPRJP1.node[6].wlan.mac 	"sent and received bits" 	12287712
scalar scenarioPRJP1.node[6].wlan.mac 	"sent packet within AC 0" 	111
scalar scenarioPRJP1.node[6].wlan.mac 	"sent packet within AC 1" 	1
scalar scenarioPRJP1.node[6].wlan.mac 	"sent packet within AC 2" 	0
scalar scenarioPRJP1.node[6].wlan.mac 	"sent packet within AC 3" 	0
scalar scenarioPRJP1.node[6].wlan.mac 	"sent in TXOP " 	0
scalar scenarioPRJP1.node[6].wlan.mac 	"sentWithoutRetry AC 0" 	108
scalar scenarioPRJP1.node[6].wlan.mac 	"sentWithoutRetry AC 1" 	1
scalar scenarioPRJP1.node[6].wlan.mac 	"sentWithoutRetry AC 2" 	0
scalar scenarioPRJP1.node[6].wlan.mac 	"sentWithoutRetry AC 3" 	0
scalar scenarioPRJP1.node[6].wlan.mac 	"numGivenUp AC 0" 	155
scalar scenarioPRJP1.node[6].wlan.mac 	"numGivenUp AC 1" 	1
scalar scenarioPRJP1.node[6].wlan.mac 	"numGivenUp AC 2" 	0
scalar scenarioPRJP1.node[6].wlan.mac 	"numGivenUp AC 3" 	0
scalar scenarioPRJP1.node[6].wlan.mac 	"numDropped AC 0" 	0
scalar scenarioPRJP1.node[6].wlan.mac 	"numDropped AC 1" 	0
scalar scenarioPRJP1.node[6].wlan.mac 	"numDropped AC 2" 	0
scalar scenarioPRJP1.node[6].wlan.mac 	"numDropped AC 3" 	0
scalar scenarioPRJP1.node[6].wlan.mac 	rcvdPkFromLL:count 	2106
attr interpolationmode  none
attr source  packetReceivedFromLower
attr title  "packets received from lower layer, count"
scalar scenarioPRJP1.node[6].wlan.mac 	rcvdPkFromLL:sum(packetBytes) 	1183014
attr interpolationmode  none
attr source  packetReceivedFromLower
attr title  "packets received from lower layer, sum(packetBytes)"
scalar scenarioPRJP1.node[6].wlan.mac 	sentDownPk:count 	2930
attr interpolationmode  none
attr source  packetSentToLower
attr title  "packets sent to lower layer, count"
scalar scenarioPRJP1.node[6].wlan.mac 	sentDownPk:sum(packetBytes) 	2153410
attr interpolationmode  none
attr source  packetSentToLower
attr title  "packets sent to lower layer, sum(packetBytes)"
scalar scenarioPRJP1.node[6].wlan.mac 	rcvdPkFromHL:count 	1658
attr interpolationmode  none
attr source  packetReceivedFromUpper
attr title  "packets received from higher layer, count"
scalar scenarioPRJP1.node[6].wlan.mac 	rcvdPkFromHL:sum(packetBytes) 	1622776
attr interpolationmode  none
attr source  packetReceivedFromUpper
attr title  "packets received from higher layer, sum(packetBytes)"
scalar scenarioPRJP1.node[6].wlan.mac 	passedUpPk:count 	854
attr interpolationmode  none
attr source  packetSentToUpper
attr title  "packets passed to higher layer, count"
scalar scenarioPRJP1.node[6].wlan.mac 	passedUpPk:sum(packetBytes) 	820352
attr interpolationmode  none
attr source  packetSentToUpper
attr title  "packets passed to higher layer, sum(packetBytes)"
statistic scenarioPRJP1.node[6].wlan.radio 	radioChannel:histogram
field count 1
field mean 3
field stddev -nan
field sum 3
field sqrsum 9
field min 3
field max 3
attr interpolationmode  sample-hold
attr source  radioChannelChanged
attr title  "Radio channel, histogram"
bin	-INF	0
bin	2	0
bin	3	1
bin	4	0
scalar scenarioPRJP1.node[6].wlan.radio 	transmissionState:count 	11720
attr interpolationmode  sample-hold
attr source  transmissionStateChanged
attr title  "Radio transmission state, count"
scalar scenarioPRJP1.node[6].wlan.radio 	receptionState:count 	10074
attr interpolationmode  sample-hold
attr source  receptionStateChanged
attr title  "Radio reception state, count"
scalar scenarioPRJP1.node[6].wlan.radio 	radioMode:count 	5862
attr interpolationmode  sample-hold
attr source  radioModeChanged
attr title  "Radio mode, count"
statistic scenarioPRJP1.node[6].wlan.radio 	symbolErrorRate:histogram
field count 0
field mean -nan
field stddev -nan
field sum 0
field sqrsum 0
field min -nan
field max -nan
attr source  symbolErrorRate
attr title  "Symbol error rate, histogram"
bin	-INF	0
bin	-0.5	0
bin	-0.46666666666667	0
bin	-0.43333333333333	0
bin	-0.4	0
bin	-0.36666666666667	0
bin	-0.33333333333333	0
bin	-0.3	0
bin	-0.26666666666667	0
bin	-0.23333333333333	0
bin	-0.2	0
bin	-0.16666666666667	0
bin	-0.13333333333333	0
bin	-0.1	0
bin	-0.066666666666667	0
bin	-0.033333333333333	0
bin	0	0
bin	0.033333333333333	0
bin	0.066666666666667	0
bin	0.1	0
bin	0.13333333333333	0
bin	0.16666666666667	0
bin	0.2	0
bin	0.23333333333333	0
bin	0.26666666666667	0
bin	0.3	0
bin	0.33333333333333	0
bin	0.36666666666667	0
bin	0.4	0
bin	0.43333333333333	0
bin	0.46666666666667	0
bin	0.5	0
statistic scenarioPRJP1.node[6].wlan.radio 	bitErrorRate:histogram
field count 0
field mean -nan
field stddev -nan
field sum 0
field sqrsum 0
field min -nan
field max -nan
attr source  bitErrorRate
attr title  "Bit error rate, histogram"
bin	-INF	0
bin	-0.5	0
bin	-0.46666666666667	0
bin	-0.43333333333333	0
bin	-0.4	0
bin	-0.36666666666667	0
bin	-0.33333333333333	0
bin	-0.3	0
bin	-0.26666666666667	0
bin	-0.23333333333333	0
bin	-0.2	0
bin	-0.16666666666667	0
bin	-0.13333333333333	0
bin	-0.1	0
bin	-0.066666666666667	0
bin	-0.033333333333333	0
bin	0	0
bin	0.033333333333333	0
bin	0.066666666666667	0
bin	0.1	0
bin	0.13333333333333	0
bin	0.16666666666667	0
bin	0.2	0
bin	0.23333333333333	0
bin	0.26666666666667	0
bin	0.3	0
bin	0.33333333333333	0
bin	0.36666666666667	0
bin	0.4	0
bin	0.43333333333333	0
bin	0.46666666666667	0
bin	0.5	0
statistic scenarioPRJP1.node[6].wlan.radio 	packetErrorRate:histogram
field count 2106
field mean 0.011226827697193
field stddev 0.10123090016862
field sum 23.643699130289
field sqrsum 21.836842024797
field min 0
field max 1
attr source  packetErrorRate
attr title  "Packet error rate, histogram"
bin	-INF	0
bin	-0.5	0
bin	-0.46666666666667	0
bin	-0.43333333333333	0
bin	-0.4	0
bin	-0.36666666666667	0
bin	-0.33333333333333	0
bin	-0.3	0
bin	-0.26666666666667	0
bin	-0.23333333333333	0
bin	-0.2	0
bin	-0.16666666666667	0
bin	-0.13333333333333	0
bin	-0.1	0
bin	-0.066666666666667	0
bin	-0.033333333333333	0
bin	0	2074
bin	0.033333333333333	0
bin	0.066666666666667	6
bin	0.1	0
bin	0.13333333333333	0
bin	0.16666666666667	2
bin	0.2	0
bin	0.23333333333333	0
bin	0.26666666666667	0
bin	0.3	0
bin	0.33333333333333	0
bin	0.36666666666667	0
bin	0.4	0
bin	0.43333333333333	0
bin	0.46666666666667	0
bin	0.5	24
statistic scenarioPRJP1.node[6].wlan.radio 	minSNIR:histogram
field count 2106
field mean 50353.004311622
field stddev 148755.44872692
field sum 106043427.08028
field sqrsum 51919431463110
field min 0.62008192424709
field max 753239.71923443
attr source  minSNIR
attr title  "Min SNIR, histogram"
bin	-INF	0
bin	-49913.790773295	0
bin	-43145.071302002	0
bin	-36376.351830709	0
bin	-29607.632359416	0
bin	-22838.912888123	0
bin	-16070.19341683	0
bin	-9301.4739455372	0
bin	-2532.7544742442	1487
bin	4235.9649970487	83
bin	11004.684468342	63
bin	17773.403939635	85
bin	24542.123410928	33
bin	31310.842882221	12
bin	38079.562353513	9
bin	44848.281824806	3
bin	51617.001296099	10
bin	58385.720767392	7
bin	65154.440238685	4
bin	71923.159709978	0
bin	78691.879181271	11
bin	85460.598652564	8
bin	92229.318123857	17
bin	98998.03759515	7
bin	105766.75706644	5
bin	112535.47653774	1
bin	119304.19600903	2
bin	126072.91548032	0
bin	132841.63495161	12
bin	139610.35442291	4
bin	146379.0738942	5
bin	153147.79336549	238
scalar scenarioPRJP1.node[6].lo0.lo 	droppedPkBitError:count 	0
attr interpolationmode  none
attr source  dropPkBitError
attr title  "packets dropped/bit error, count"
scalar scenarioPRJP1.node[6].lo0.lo 	droppedPkBitError:sum(packetBytes) 	0
attr interpolationmode  none
attr source  dropPkBitError
attr title  "packets dropped/bit error, sum(packetBytes)"
scalar scenarioPRJP1.node[6].lo0.lo 	rcvdPkFromHL:count 	0
attr interpolationmode  none
attr source  packetReceivedFromUpper
attr title  "packets received from higher layer, count"
scalar scenarioPRJP1.node[6].lo0.lo 	rcvdPkFromHL:sum(packetBytes) 	0
attr interpolationmode  none
attr source  packetReceivedFromUpper
attr title  "packets received from higher layer, sum(packetBytes)"
scalar scenarioPRJP1.node[6].lo0.lo 	passedUpPk:count 	0
attr interpolationmode  none
attr source  packetSentToUpper
attr title  "packets passed to higher layer, count"
scalar scenarioPRJP1.node[6].lo0.lo 	passedUpPk:sum(packetBytes) 	0
attr interpolationmode  none
attr source  packetSentToUpper
attr title  "packets passed to higher layer, sum(packetBytes)"
scalar scenarioPRJP1.node[2].app 	"Total sent" 	2607
scalar scenarioPRJP1.node[2].app 	"Total received" 	212
scalar scenarioPRJP1.node[2].app 	"Total deleted" 	0
scalar scenarioPRJP1.node[2].app 	dropPk:count 	0
attr interpolationmode  none
attr source  dropPk
attr title  "packets dropped, count"
scalar scenarioPRJP1.node[2].app 	dropPk:sum(packetBytes) 	0
attr interpolationmode  none
attr source  dropPk
attr title  "packets dropped, sum(packetBytes)"
scalar scenarioPRJP1.node[2].app 	outOfOrderPk:count 	0
attr interpolationmode  none
attr source  outOfOrderPk
attr title  "packets received out of order, count"
scalar scenarioPRJP1.node[2].app 	outOfOrderPk:sum(packetBytes) 	0
attr interpolationmode  none
attr source  outOfOrderPk
attr title  "packets received out of order, sum(packetBytes)"
scalar scenarioPRJP1.node[2].app 	rcvdPk:count 	212
attr interpolationmode  none
attr source  rcvdPk
attr title  "packets received, count"
scalar scenarioPRJP1.node[2].app 	rcvdPk:sum(packetBytes) 	108544
attr interpolationmode  none
attr source  rcvdPk
attr title  "packets received, sum(packetBytes)"
statistic scenarioPRJP1.node[2].app 	endToEndDelay:histogram
field count 212
field mean 0.0072508867776651
field stddev 0.069173172453401
field sum 1.537187996865
field sqrsum 1.0207657392348
field min 0.000945011007
field max 1.006615446894
attr interpolationmode  none
attr source  messageAge(rcvdPk)
attr title  "delay, histogram"
attr unit  s
bin	-INF	0
bin	-0.5018902069365	0
bin	-0.4348455112107	0
bin	-0.3678008154849	0
bin	-0.3007561197591	0
bin	-0.2337114240333	0
bin	-0.1666667283075	0
bin	-0.0996220325817	0
bin	-0.0325773368559	210
bin	0.0344673588699	1
bin	0.1015120545957	0
bin	0.1685567503215	0
bin	0.2356014460473	0
bin	0.3026461417731	0
bin	0.3696908374989	0
bin	0.4367355332247	0
bin	0.5037802289505	0
bin	0.5708249246763	0
bin	0.6378696204021	0
bin	0.7049143161279	0
bin	0.7719590118537	0
bin	0.8390037075795	0
bin	0.9060484033053	0
bin	0.9730930990311	1
bin	1.0401377947569	0
bin	1.1071824904827	0
bin	1.1742271862085	0
bin	1.2412718819343	0
bin	1.3083165776601	0
bin	1.3753612733859	0
bin	1.4424059691117	0
bin	1.5094506648375	0
scalar scenarioPRJP1.node[2].app 	sentPk:count 	2607
attr interpolationmode  none
attr source  sentPk
attr title  "packets sent, count"
scalar scenarioPRJP1.node[2].app 	sentPk:sum(packetBytes) 	1334784
attr interpolationmode  none
attr source  sentPk
attr title  "packets sent, sum(packetBytes)"
scalar scenarioPRJP1.node[2].udp 	droppedPkBadChecksum:count 	0
attr interpolationmode  none
attr title  "packets dropped (checksum error), count"
scalar scenarioPRJP1.node[2].udp 	droppedPkWrongPort:count 	0
attr interpolationmode  none
attr title  "packets dropped (wrong port), count"
scalar scenarioPRJP1.node[2].udp 	passedUpPk:count 	212
attr interpolationmode  none
attr title  "packets passed up, count"
scalar scenarioPRJP1.node[2].udp 	rcvdPk:count 	212
attr interpolationmode  none
attr source  rcvdPk
attr title  "packets received, count"
scalar scenarioPRJP1.node[2].udp 	rcvdPk:sum(packetBytes) 	110240
attr interpolationmode  none
attr source  rcvdPk
attr title  "packets received, sum(packetBytes)"
scalar scenarioPRJP1.node[2].udp 	sentPk:count 	2607
attr interpolationmode  none
attr source  sentPk
attr title  "packets sent, count"
scalar scenarioPRJP1.node[2].udp 	sentPk:sum(packetBytes) 	1355640
attr interpolationmode  none
attr source  sentPk
attr title  "packets sent, sum(packetBytes)"
scalar scenarioPRJP1.node[2].networkLayer.arp 	failedARPResolution:count 	1
attr title  "ARP failed resolutions, count"
scalar scenarioPRJP1.node[2].networkLayer.arp 	completedARPResolution:count 	26
attr title  "ARP completed resolutions, count"
scalar scenarioPRJP1.node[2].networkLayer.arp 	initiatedARPResolution:count 	14
attr title  "ARP initiated resolutions, count"
scalar scenarioPRJP1.node[2].networkLayer.arp 	sentReply:count 	7
attr title  "ARP replies sent, count"
scalar scenarioPRJP1.node[2].networkLayer.arp 	sentReq:count 	16
attr title  "ARP request sent, count"
scalar scenarioPRJP1.node[2].mobility 	startTime 	0.1
scalar scenarioPRJP1.node[2].mobility 	totalTime 	949.9
scalar scenarioPRJP1.node[2].mobility 	stopTime 	950
scalar scenarioPRJP1.node[2].mobility 	minSpeed 	2.4755676086329e-13
scalar scenarioPRJP1.node[2].mobility 	maxSpeed 	17.366741078077
scalar scenarioPRJP1.node[2].mobility 	totalDistance 	9298.3551603756
scalar scenarioPRJP1.node[2].mobility 	totalCO2Emission 	2516.7523418858
scalar scenarioPRJP1.node[2].wlan.mgmt 	dataQueueLen:max 	0
attr interpolationmode  sample-hold
attr title  "data queue length, max"
scalar scenarioPRJP1.node[2].wlan.mgmt 	dataQueueLen:timeavg 	0
attr interpolationmode  sample-hold
attr title  "data queue length, timeavg"
scalar scenarioPRJP1.node[2].wlan.mgmt 	dropPkByQueue:count 	0
attr interpolationmode  none
attr source  dropPkByQueue
attr title  "packets dropped by queue, count"
scalar scenarioPRJP1.node[2].wlan.mgmt 	dropPkByQueue:sum(packetBytes) 	0
attr interpolationmode  none
attr source  dropPkByQueue
attr title  "packets dropped by queue, sum(packetBytes)"
scalar scenarioPRJP1.node[2].wlan.mac 	"number of received packets" 	674
scalar scenarioPRJP1.node[2].wlan.mac 	"number of collisions" 	72
scalar scenarioPRJP1.node[2].wlan.mac 	"number of internal collisions" 	0
scalar scenarioPRJP1.node[2].wlan.mac 	"number of retry for AC 0" 	937
scalar scenarioPRJP1.node[2].wlan.mac 	"number of retry for AC 1" 	0
scalar scenarioPRJP1.node[2].wlan.mac 	"number of retry for AC 2" 	0
scalar scenarioPRJP1.node[2].wlan.mac 	"number of retry for AC 3" 	0
scalar scenarioPRJP1.node[2].wlan.mac 	"sent and received bits" 	13487968
scalar scenarioPRJP1.node[2].wlan.mac 	"sent packet within AC 0" 	298
scalar scenarioPRJP1.node[2].wlan.mac 	"sent packet within AC 1" 	9
scalar scenarioPRJP1.node[2].wlan.mac 	"sent packet within AC 2" 	0
scalar scenarioPRJP1.node[2].wlan.mac 	"sent packet within AC 3" 	0
scalar scenarioPRJP1.node[2].wlan.mac 	"sent in TXOP " 	0
scalar scenarioPRJP1.node[2].wlan.mac 	"sentWithoutRetry AC 0" 	297
scalar scenarioPRJP1.node[2].wlan.mac 	"sentWithoutRetry AC 1" 	9
scalar scenarioPRJP1.node[2].wlan.mac 	"sentWithoutRetry AC 2" 	0
scalar scenarioPRJP1.node[2].wlan.mac 	"sentWithoutRetry AC 3" 	0
scalar scenarioPRJP1.node[2].wlan.mac 	"numGivenUp AC 0" 	156
scalar scenarioPRJP1.node[2].wlan.mac 	"numGivenUp AC 1" 	0
scalar scenarioPRJP1.node[2].wlan.mac 	"numGivenUp AC 2" 	0
scalar scenarioPRJP1.node[2].wlan.mac 	"numGivenUp AC 3" 	0
scalar scenarioPRJP1.node[2].wlan.mac 	"numDropped AC 0" 	0
scalar scenarioPRJP1.node[2].wlan.mac 	"numDropped AC 1" 	0
scalar scenarioPRJP1.node[2].wlan.mac 	"numDropped AC 2" 	0
scalar scenarioPRJP1.node[2].wlan.mac 	"numDropped AC 3" 	0
scalar scenarioPRJP1.node[2].wlan.mac 	rcvdPkFromLL:count 	3847
attr interpolationmode  none
attr source  packetReceivedFromLower
attr title  "packets received from lower layer, count"
scalar scenarioPRJP1.node[2].wlan.mac 	rcvdPkFromLL:sum(packetBytes) 	2159324
attr interpolationmode  none
attr source  packetReceivedFromLower
attr title  "packets received from lower layer, sum(packetBytes)"
scalar scenarioPRJP1.node[2].wlan.mac 	sentDownPk:count 	3512
attr interpolationmode  none
attr source  packetSentToLower
attr title  "packets sent to lower layer, count"
scalar scenarioPRJP1.node[2].wlan.mac 	sentDownPk:sum(packetBytes) 	2303496
attr interpolationmode  none
attr source  packetSentToLower
attr title  "packets sent to lower layer, sum(packetBytes)"
scalar scenarioPRJP1.node[2].wlan.mac 	rcvdPkFromHL:count 	1901
attr interpolationmode  none
attr source  packetReceivedFromUpper
attr title  "packets received from higher layer, count"
scalar scenarioPRJP1.node[2].wlan.mac 	rcvdPkFromHL:sum(packetBytes) 	1772780
attr interpolationmode  none
attr source  packetReceivedFromUpper
attr title  "packets received from higher layer, sum(packetBytes)"
scalar scenarioPRJP1.node[2].wlan.mac 	passedUpPk:count 	1611
attr interpolationmode  none
attr source  packetSentToUpper
attr title  "packets passed to higher layer, count"
scalar scenarioPRJP1.node[2].wlan.mac 	passedUpPk:sum(packetBytes) 	1522692
attr interpolationmode  none
attr source  packetSentToUpper
attr title  "packets passed to higher layer, sum(packetBytes)"
statistic scenarioPRJP1.node[2].wlan.radio 	radioChannel:histogram
field count 1
field mean 3
field stddev -nan
field sum 3
field sqrsum 9
field min 3
field max 3
attr interpolationmode  sample-hold
attr source  radioChannelChanged
attr title  "Radio channel, histogram"
bin	-INF	0
bin	2	0
bin	3	1
bin	4	0
scalar scenarioPRJP1.node[2].wlan.radio 	transmissionState:count 	14048
attr interpolationmode  sample-hold
attr source  transmissionStateChanged
attr title  "Radio transmission state, count"
scalar scenarioPRJP1.node[2].wlan.radio 	receptionState:count 	14732
attr interpolationmode  sample-hold
attr source  receptionStateChanged
attr title  "Radio reception state, count"
scalar scenarioPRJP1.node[2].wlan.radio 	radioMode:count 	7026
attr interpolationmode  sample-hold
attr source  radioModeChanged
attr title  "Radio mode, count"
statistic scenarioPRJP1.node[2].wlan.radio 	symbolErrorRate:histogram
field count 0
field mean -nan
field stddev -nan
field sum 0
field sqrsum 0
field min -nan
field max -nan
attr source  symbolErrorRate
attr title  "Symbol error rate, histogram"
bin	-INF	0
bin	-0.5	0
bin	-0.46666666666667	0
bin	-0.43333333333333	0
bin	-0.4	0
bin	-0.36666666666667	0
bin	-0.33333333333333	0
bin	-0.3	0
bin	-0.26666666666667	0
bin	-0.23333333333333	0
bin	-0.2	0
bin	-0.16666666666667	0
bin	-0.13333333333333	0
bin	-0.1	0
bin	-0.066666666666667	0
bin	-0.033333333333333	0
bin	0	0
bin	0.033333333333333	0
bin	0.066666666666667	0
bin	0.1	0
bin	0.13333333333333	0
bin	0.16666666666667	0
bin	0.2	0
bin	0.23333333333333	0
bin	0.26666666666667	0
bin	0.3	0
bin	0.33333333333333	0
bin	0.36666666666667	0
bin	0.4	0
bin	0.43333333333333	0
bin	0.46666666666667	0
bin	0.5	0
statistic scenarioPRJP1.node[2].wlan.radio 	bitErrorRate:histogram
field count 0
field mean -nan
field stddev -nan
field sum 0
field sqrsum 0
field min -nan
field max -nan
attr source  bitErrorRate
attr title  "Bit error rate, histogram"
bin	-INF	0
bin	-0.5	0
bin	-0.46666666666667	0
bin	-0.43333333333333	0
bin	-0.4	0
bin	-0.36666666666667	0
bin	-0.33333333333333	0
bin	-0.3	0
bin	-0.26666666666667	0
bin	-0.23333333333333	0
bin	-0.2	0
bin	-0.16666666666667	0
bin	-0.13333333333333	0
bin	-0.1	0
bin	-0.066666666666667	0
bin	-0.033333333333333	0
bin	0	0
bin	0.033333333333333	0
bin	0.066666666666667	0
bin	0.1	0
bin	0.13333333333333	0
bin	0.16666666666667	0
bin	0.2	0
bin	0.23333333333333	0
bin	0.26666666666667	0
bin	0.3	0
bin	0.33333333333333	0
bin	0.36666666666667	0
bin	0.4	0
bin	0.43333333333333	0
bin	0.46666666666667	0
bin	0.5	0
statistic scenarioPRJP1.node[2].wlan.radio 	packetErrorRate:histogram
field count 3847
field mean 0.01932294562205
field stddev 0.13634506747845
field sum 74.335371808026
field sqrsum 72.933431526491
field min 0
field max 1
attr source  packetErrorRate
attr title  "Packet error rate, histogram"
bin	-INF	0
bin	-0.5	0
bin	-0.46666666666667	0
bin	-0.43333333333333	0
bin	-0.4	0
bin	-0.36666666666667	0
bin	-0.33333333333333	0
bin	-0.3	0
bin	-0.26666666666667	0
bin	-0.23333333333333	0
bin	-0.2	0
bin	-0.16666666666667	0
bin	-0.13333333333333	0
bin	-0.1	0
bin	-0.066666666666667	0
bin	-0.033333333333333	0
bin	0	3768
bin	0.033333333333333	0
bin	0.066666666666667	0
bin	0.1	3
bin	0.13333333333333	0
bin	0.16666666666667	0
bin	0.2	0
bin	0.23333333333333	0
bin	0.26666666666667	0
bin	0.3	0
bin	0.33333333333333	2
bin	0.36666666666667	0
bin	0.4	0
bin	0.43333333333333	0
bin	0.46666666666667	0
bin	0.5	74
statistic scenarioPRJP1.node[2].wlan.radio 	minSNIR:histogram
field count 3847
field mean 100185.85393414
field stddev 236867.46215386
field sum 385414980.08465
field sqrsum 2.5439755343504e+14
field min 0.00093885576432999
field max 4688769.6041615
attr source  minSNIR
attr title  "Min SNIR, histogram"
bin	-INF	0
bin	-376277.23078802	0
bin	-326095.78720621	0
bin	-275914.34362441	0
bin	-225732.9000426	0
bin	-175551.4564608	0
bin	-125370.01287899	0
bin	-75188.56929719	0
bin	-25007.125715386	2868
bin	25174.317866419	163
bin	75355.761448223	77
bin	125537.20503003	34
bin	175718.64861183	239
bin	225900.09219364	17
bin	276081.53577544	16
bin	326262.97935724	8
bin	376444.42293905	22
bin	426625.86652085	27
bin	476807.31010266	14
bin	526988.75368446	12
bin	577170.19726626	10
bin	627351.64084807	5
bin	677533.08442987	16
bin	727714.52801168	316
bin	777895.97159348	0
bin	828077.41517529	0
bin	878258.85875709	0
bin	928440.30233889	0
bin	978621.7459207	0
bin	1028803.1895025	0
bin	1078984.6330843	1
bin	1129166.0766661	2
scalar scenarioPRJP1.node[2].lo0.lo 	droppedPkBitError:count 	0
attr interpolationmode  none
attr source  dropPkBitError
attr title  "packets dropped/bit error, count"
scalar scenarioPRJP1.node[2].lo0.lo 	droppedPkBitError:sum(packetBytes) 	0
attr interpolationmode  none
attr source  dropPkBitError
attr title  "packets dropped/bit error, sum(packetBytes)"
scalar scenarioPRJP1.node[2].lo0.lo 	rcvdPkFromHL:count 	2
attr interpolationmode  none
attr source  packetReceivedFromUpper
attr title  "packets received from higher layer, count"
scalar scenarioPRJP1.node[2].lo0.lo 	rcvdPkFromHL:sum(packetBytes) 	112
attr interpolationmode  none
attr source  packetReceivedFromUpper
attr title  "packets received from higher layer, sum(packetBytes)"
scalar scenarioPRJP1.node[2].lo0.lo 	passedUpPk:count 	2
attr interpolationmode  none
attr source  packetSentToUpper
attr title  "packets passed to higher layer, count"
scalar scenarioPRJP1.node[2].lo0.lo 	passedUpPk:sum(packetBytes) 	112
attr interpolationmode  none
attr source  packetSentToUpper
attr title  "packets passed to higher layer, sum(packetBytes)"
scalar scenarioPRJP1.node[7].app 	"Total sent" 	2618
scalar scenarioPRJP1.node[7].app 	"Total received" 	215
scalar scenarioPRJP1.node[7].app 	"Total deleted" 	0
scalar scenarioPRJP1.node[7].app 	dropPk:count 	0
attr interpolationmode  none
attr source  dropPk
attr title  "packets dropped, count"
scalar scenarioPRJP1.node[7].app 	dropPk:sum(packetBytes) 	0
attr interpolationmode  none
attr source  dropPk
attr title  "packets dropped, sum(packetBytes)"
scalar scenarioPRJP1.node[7].app 	outOfOrderPk:count 	3
attr interpolationmode  none
attr source  outOfOrderPk
attr title  "packets received out of order, count"
scalar scenarioPRJP1.node[7].app 	outOfOrderPk:sum(packetBytes) 	1536
attr interpolationmode  none
attr source  outOfOrderPk
attr title  "packets received out of order, sum(packetBytes)"
scalar scenarioPRJP1.node[7].app 	rcvdPk:count 	215
attr interpolationmode  none
attr source  rcvdPk
attr title  "packets received, count"
scalar scenarioPRJP1.node[7].app 	rcvdPk:sum(packetBytes) 	110080
attr interpolationmode  none
attr source  rcvdPk
attr title  "packets received, sum(packetBytes)"
statistic scenarioPRJP1.node[7].app 	endToEndDelay:histogram
field count 215
field mean 0.0054265845987488
field stddev 0.052825004631834
field sum 1.166715688731
field sqrsum 0.60349423985918
field min 0.000945022685
field max 0.775439641919
attr interpolationmode  none
attr source  messageAge(rcvdPk)
attr title  "delay, histogram"
attr unit  s
bin	-INF	0
bin	-0.386302217728	0
bin	-0.33466924618813	0
bin	-0.28303627464827	0
bin	-0.2314033031084	0
bin	-0.17977033156853	0
bin	-0.12813736002867	0
bin	-0.0765043884888	0
bin	-0.024871416948933	214
bin	0.026761554590933	0
bin	0.0783945261308	0
bin	0.13002749767067	0
bin	0.18166046921053	0
bin	0.2332934407504	0
bin	0.28492641229027	0
bin	0.33655938383013	0
bin	0.38819235537	0
bin	0.43982532690987	0
bin	0.49145829844973	0
bin	0.5430912699896	0
bin	0.59472424152947	0
bin	0.64635721306933	0
bin	0.6979901846092	0
bin	0.74962315614907	1
bin	0.80125612768893	0
bin	0.8528890992288	0
bin	0.90452207076867	0
bin	0.95615504230853	0
bin	1.0077880138484	0
bin	1.0594209853883	0
bin	1.1110539569281	0
bin	1.162686928468	0
scalar scenarioPRJP1.node[7].app 	sentPk:count 	2618
attr interpolationmode  none
attr source  sentPk
attr title  "packets sent, count"
scalar scenarioPRJP1.node[7].app 	sentPk:sum(packetBytes) 	1340416
attr interpolationmode  none
attr source  sentPk
attr title  "packets sent, sum(packetBytes)"
scalar scenarioPRJP1.node[7].udp 	droppedPkBadChecksum:count 	0
attr interpolationmode  none
attr title  "packets dropped (checksum error), count"
scalar scenarioPRJP1.node[7].udp 	droppedPkWrongPort:count 	0
attr interpolationmode  none
attr title  "packets dropped (wrong port), count"
scalar scenarioPRJP1.node[7].udp 	passedUpPk:count 	218
attr interpolationmode  none
attr title  "packets passed up, count"
scalar scenarioPRJP1.node[7].udp 	rcvdPk:count 	218
attr interpolationmode  none
attr source  rcvdPk
attr title  "packets received, count"
scalar scenarioPRJP1.node[7].udp 	rcvdPk:sum(packetBytes) 	113360
attr interpolationmode  none
attr source  rcvdPk
attr title  "packets received, sum(packetBytes)"
scalar scenarioPRJP1.node[7].udp 	sentPk:count 	2618
attr interpolationmode  none
attr source  sentPk
attr title  "packets sent, count"
scalar scenarioPRJP1.node[7].udp 	sentPk:sum(packetBytes) 	1361360
attr interpolationmode  none
attr source  sentPk
attr title  "packets sent, sum(packetBytes)"
scalar scenarioPRJP1.node[7].networkLayer.arp 	failedARPResolution:count 	0
attr title  "ARP failed resolutions, count"
scalar scenarioPRJP1.node[7].networkLayer.arp 	completedARPResolution:count 	21
attr title  "ARP completed resolutions, count"
scalar scenarioPRJP1.node[7].networkLayer.arp 	initiatedARPResolution:count 	8
attr title  "ARP initiated resolutions, count"
scalar scenarioPRJP1.node[7].networkLayer.arp 	sentReply:count 	7
attr title  "ARP replies sent, count"
scalar scenarioPRJP1.node[7].networkLayer.arp 	sentReq:count 	8
attr title  "ARP request sent, count"
scalar scenarioPRJP1.node[7].mobility 	startTime 	2.5
scalar scenarioPRJP1.node[7].mobility 	totalTime 	947.5
scalar scenarioPRJP1.node[7].mobility 	stopTime 	950
scalar scenarioPRJP1.node[7].mobility 	minSpeed 	2.475656074774e-13
scalar scenarioPRJP1.node[7].mobility 	maxSpeed 	16.902799274444
scalar scenarioPRJP1.node[7].mobility 	totalDistance 	9366.2511221602
scalar scenarioPRJP1.node[7].mobility 	totalCO2Emission 	2426.8582888355
scalar scenarioPRJP1.node[7].wlan.mgmt 	dataQueueLen:max 	0
attr interpolationmode  sample-hold
attr title  "data queue length, max"
scalar scenarioPRJP1.node[7].wlan.mgmt 	dataQueueLen:timeavg 	0
attr interpolationmode  sample-hold
attr title  "data queue length, timeavg"
scalar scenarioPRJP1.node[7].wlan.mgmt 	dropPkByQueue:count 	0
attr interpolationmode  none
attr source  dropPkByQueue
attr title  "packets dropped by queue, count"
scalar scenarioPRJP1.node[7].wlan.mgmt 	dropPkByQueue:sum(packetBytes) 	0
attr interpolationmode  none
attr source  dropPkByQueue
attr title  "packets dropped by queue, sum(packetBytes)"
scalar scenarioPRJP1.node[7].wlan.mac 	"number of received packets" 	596
scalar scenarioPRJP1.node[7].wlan.mac 	"number of collisions" 	51
scalar scenarioPRJP1.node[7].wlan.mac 	"number of internal collisions" 	0
scalar scenarioPRJP1.node[7].wlan.mac 	"number of retry for AC 0" 	801
scalar scenarioPRJP1.node[7].wlan.mac 	"number of retry for AC 1" 	0
scalar scenarioPRJP1.node[7].wlan.mac 	"number of retry for AC 2" 	0
scalar scenarioPRJP1.node[7].wlan.mac 	"number of retry for AC 3" 	0
scalar scenarioPRJP1.node[7].wlan.mac 	"sent and received bits" 	13051648
scalar scenarioPRJP1.node[7].wlan.mac 	"sent packet within AC 0" 	205
scalar scenarioPRJP1.node[7].wlan.mac 	"sent packet within AC 1" 	4
scalar scenarioPRJP1.node[7].wlan.mac 	"sent packet within AC 2" 	0
scalar scenarioPRJP1.node[7].wlan.mac 	"sent packet within AC 3" 	0
scalar scenarioPRJP1.node[7].wlan.mac 	"sent in TXOP " 	0
scalar scenarioPRJP1.node[7].wlan.mac 	"sentWithoutRetry AC 0" 	201
scalar scenarioPRJP1.node[7].wlan.mac 	"sentWithoutRetry AC 1" 	4
scalar scenarioPRJP1.node[7].wlan.mac 	"sentWithoutRetry AC 2" 	0
scalar scenarioPRJP1.node[7].wlan.mac 	"sentWithoutRetry AC 3" 	0
scalar scenarioPRJP1.node[7].wlan.mac 	"numGivenUp AC 0" 	131
scalar scenarioPRJP1.node[7].wlan.mac 	"numGivenUp AC 1" 	0
scalar scenarioPRJP1.node[7].wlan.mac 	"numGivenUp AC 2" 	0
scalar scenarioPRJP1.node[7].wlan.mac 	"numGivenUp AC 3" 	0
scalar scenarioPRJP1.node[7].wlan.mac 	"numDropped AC 0" 	0
scalar scenarioPRJP1.node[7].wlan.mac 	"numDropped AC 1" 	0
scalar scenarioPRJP1.node[7].wlan.mac 	"numDropped AC 2" 	0
scalar scenarioPRJP1.node[7].wlan.mac 	"numDropped AC 3" 	0
scalar scenarioPRJP1.node[7].wlan.mac 	rcvdPkFromLL:count 	3472
attr interpolationmode  none
attr source  packetReceivedFromLower
attr title  "packets received from lower layer, count"
scalar scenarioPRJP1.node[7].wlan.mac 	rcvdPkFromLL:sum(packetBytes) 	1981778
attr interpolationmode  none
attr source  packetReceivedFromLower
attr title  "packets received from lower layer, sum(packetBytes)"
scalar scenarioPRJP1.node[7].wlan.mac 	sentDownPk:count 	3167
attr interpolationmode  none
attr source  packetSentToLower
attr title  "packets sent to lower layer, count"
scalar scenarioPRJP1.node[7].wlan.mac 	sentDownPk:sum(packetBytes) 	2155128
attr interpolationmode  none
attr source  packetSentToLower
attr title  "packets sent to lower layer, sum(packetBytes)"
scalar scenarioPRJP1.node[7].wlan.mac 	rcvdPkFromHL:count 	1770
attr interpolationmode  none
attr source  packetReceivedFromUpper
attr title  "packets received from higher layer, count"
scalar scenarioPRJP1.node[7].wlan.mac 	rcvdPkFromHL:sum(packetBytes) 	1703840
attr interpolationmode  none
attr source  packetReceivedFromUpper
attr title  "packets received from higher layer, sum(packetBytes)"
scalar scenarioPRJP1.node[7].wlan.mac 	passedUpPk:count 	1469
attr interpolationmode  none
attr source  packetSentToUpper
attr title  "packets passed to higher layer, count"
scalar scenarioPRJP1.node[7].wlan.mac 	passedUpPk:sum(packetBytes) 	1412228
attr interpolationmode  none
attr source  packetSentToUpper
attr title  "packets passed to higher layer, sum(packetBytes)"
statistic scenarioPRJP1.node[7].wlan.radio 	radioChannel:histogram
field count 1
field mean 3
field stddev -nan
field sum 3
field sqrsum 9
field min 3
field max 3
attr interpolationmode  sample-hold
attr source  radioChannelChanged
attr title  "Radio channel, histogram"
bin	-INF	0
bin	2	0
bin	3	1
bin	4	0
scalar scenarioPRJP1.node[7].wlan.radio 	transmissionState:count 	12668
attr interpolationmode  sample-hold
attr source  transmissionStateChanged
attr title  "Radio transmission state, count"
scalar scenarioPRJP1.node[7].wlan.radio 	receptionState:count 	13289
attr interpolationmode  sample-hold
attr source  receptionStateChanged
attr title  "Radio reception state, count"
scalar scenarioPRJP1.node[7].wlan.radio 	radioMode:count 	6336
attr interpolationmode  sample-hold
attr source  radioModeChanged
attr title  "Radio mode, count"
statistic scenarioPRJP1.node[7].wlan.radio 	symbolErrorRate:histogram
field count 0
field mean -nan
field stddev -nan
field sum 0
field sqrsum 0
field min -nan
field max -nan
attr source  symbolErrorRate
attr title  "Symbol error rate, histogram"
bin	-INF	0
bin	-0.5	0
[...]
scalar scenarioPRJP1.node[4].wlan.mac 	rcvdPkFromHL:sum(packetBytes) 	1653852
attr interpolationmode  none
attr source  packetReceivedFromUpper
attr title  "packets received from higher layer, sum(packetBytes)"
scalar scenarioPRJP1.node[4].wlan.mac 	passedUpPk:count 	1071
attr interpolationmode  none
attr source  packetSentToUpper
attr title  "packets passed to higher layer, count"
scalar scenarioPRJP1.node[4].wlan.mac 	passedUpPk:sum(packetBytes) 	1036652
attr interpolationmode  none
attr source  packetSentToUpper
attr title  "packets passed to higher layer, sum(packetBytes)"
statistic scenarioPRJP1.node[4].wlan.radio 	radioChannel:histogram
field count 1
field mean 3
field stddev -nan
field sum 3
field sqrsum 9
field min 3
field max 3
attr interpolationmode  sample-hold
attr source  radioChannelChanged
attr title  "Radio channel, histogram"
bin	-INF	0
bin	2	0
bin	3	1
bin	4	0
scalar scenarioPRJP1.node[4].wlan.radio 	transmissionState:count 	11268
attr interpolationmode  sample-hold
attr source  transmissionStateChanged
attr title  "Radio transmission state, count"
scalar scenarioPRJP1.node[4].wlan.radio 	receptionState:count 	10596
attr interpolationmode  sample-hold
attr source  receptionStateChanged
attr title  "Radio reception state, count"
scalar scenarioPRJP1.node[4].wlan.radio 	radioMode:count 	5636
attr interpolationmode  sample-hold
attr source  radioModeChanged
attr title  "Radio mode, count"
statistic scenarioPRJP1.node[4].wlan.radio 	symbolErrorRate:histogram
field count 0
field mean -nan
field stddev -nan
field sum 0
field sqrsum 0
field min -nan
field max -nan
attr source  symbolErrorRate
attr title  "Symbol error rate, histogram"
bin	-INF	0
bin	-0.5	0
bin	-0.46666666666667	0
bin	-0.43333333333333	0
bin	-0.4	0
bin	-0.36666666666667	0
bin	-0.33333333333333	0
bin	-0.3	0
bin	-0.26666666666667	0
bin	-0.23333333333333	0
bin	-0.2	0
bin	-0.16666666666667	0
bin	-0.13333333333333	0
bin	-0.1	0
bin	-0.066666666666667	0
bin	-0.033333333333333	0
bin	0	0
bin	0.033333333333333	0
bin	0.066666666666667	0
bin	0.1	0
bin	0.13333333333333	0
bin	0.16666666666667	0
bin	0.2	0
bin	0.23333333333333	0
bin	0.26666666666667	0
bin	0.3	0
bin	0.33333333333333	0
bin	0.36666666666667	0
bin	0.4	0
bin	0.43333333333333	0
bin	0.46666666666667	0
bin	0.5	0
statistic scenarioPRJP1.node[4].wlan.radio 	bitErrorRate:histogram
field count 0
field mean -nan
field stddev -nan
field sum 0
field sqrsum 0
field min -nan
field max -nan
attr source  bitErrorRate
attr title  "Bit error rate, histogram"
bin	-INF	0
bin	-0.5	0
bin	-0.46666666666667	0
bin	-0.43333333333333	0
bin	-0.4	0
bin	-0.36666666666667	0
bin	-0.33333333333333	0
bin	-0.3	0
bin	-0.26666666666667	0
bin	-0.23333333333333	0
bin	-0.2	0
bin	-0.16666666666667	0
bin	-0.13333333333333	0
bin	-0.1	0
bin	-0.066666666666667	0
bin	-0.033333333333333	0
bin	0	0
bin	0.033333333333333	0
bin	0.066666666666667	0
bin	0.1	0
bin	0.13333333333333	0
bin	0.16666666666667	0
bin	0.2	0
bin	0.23333333333333	0
bin	0.26666666666667	0
bin	0.3	0
bin	0.33333333333333	0
bin	0.36666666666667	0
bin	0.4	0
bin	0.43333333333333	0
bin	0.46666666666667	0
bin	0.5	0
statistic scenarioPRJP1.node[4].wlan.radio 	packetErrorRate:histogram
field count 2479
field mean 0.010967767280004
field stddev 0.10295361125894
field sum 27.189095087131
field sqrsum 26.563631032045
field min 0
field max 1
attr source  packetErrorRate
attr title  "Packet error rate, histogram"
bin	-INF	0
bin	-0.5	0
bin	-0.46666666666667	0
bin	-0.43333333333333	0
bin	-0.4	0
bin	-0.36666666666667	0
bin	-0.33333333333333	0
bin	-0.3	0
bin	-0.26666666666667	0
bin	-0.23333333333333	0
bin	-0.2	0
bin	-0.16666666666667	0
bin	-0.13333333333333	0
bin	-0.1	0
bin	-0.066666666666667	0
bin	-0.033333333333333	0
bin	0	2450
bin	0.033333333333333	1
bin	0.066666666666667	0
bin	0.1	0
bin	0.13333333333333	0
bin	0.16666666666667	0
bin	0.2	0
bin	0.23333333333333	0
bin	0.26666666666667	0
bin	0.3	0
bin	0.33333333333333	0
bin	0.36666666666667	0
bin	0.4	0
bin	0.43333333333333	0
bin	0.46666666666667	0
bin	0.5	28
statistic scenarioPRJP1.node[4].wlan.radio 	minSNIR:histogram
field count 2479
field mean 45404.511542204
field stddev 181042.59238926
field sum 112557784.11312
field sqrsum 86330600609787
field min 1.2974383575663
field max 3181789.5065777
attr source  minSNIR
attr title  "Min SNIR, histogram"
bin	-INF	0
bin	-14266.9396373	0
bin	-12349.646035083	0
bin	-10432.352432866	0
bin	-8515.0588306493	0
bin	-6597.7652284325	0
bin	-4680.4716262157	0
bin	-2763.1780239989	0
bin	-845.88442178212	1221
bin	1071.4091804347	210
bin	2988.7027826514	86
bin	4905.9963848682	45
bin	6823.289987085	21
bin	8740.5835893018	21
bin	10657.877191519	26
bin	12575.170793735	22
bin	14492.464395952	26
bin	16409.757998169	37
bin	18327.051600386	80
bin	20244.345202603	182
bin	22161.638804819	47
bin	24078.932407036	179
bin	25996.226009253	5
bin	27913.51961147	8
bin	29830.813213686	6
bin	31748.106815903	5
bin	33665.40041812	21
bin	35582.694020337	6
bin	37499.987622554	4
bin	39417.28122477	0
bin	41334.574826987	3
bin	43251.868429204	218
scalar scenarioPRJP1.node[4].lo0.lo 	droppedPkBitError:count 	0
attr interpolationmode  none
attr source  dropPkBitError
attr title  "packets dropped/bit error, count"
scalar scenarioPRJP1.node[4].lo0.lo 	droppedPkBitError:sum(packetBytes) 	0
attr interpolationmode  none
attr source  dropPkBitError
attr title  "packets dropped/bit error, sum(packetBytes)"
scalar scenarioPRJP1.node[4].lo0.lo 	rcvdPkFromHL:count 	0
attr interpolationmode  none
attr source  packetReceivedFromUpper
attr title  "packets received from higher layer, count"
scalar scenarioPRJP1.node[4].lo0.lo 	rcvdPkFromHL:sum(packetBytes) 	0
attr interpolationmode  none
attr source  packetReceivedFromUpper
attr title  "packets received from higher layer, sum(packetBytes)"
scalar scenarioPRJP1.node[4].lo0.lo 	passedUpPk:count 	0
attr interpolationmode  none
attr source  packetSentToUpper
attr title  "packets passed to higher layer, count"
scalar scenarioPRJP1.node[4].lo0.lo 	passedUpPk:sum(packetBytes) 	0
attr interpolationmode  none
attr source  packetSentToUpper
attr title  "packets passed to higher layer, sum(packetBytes)"
scalar scenarioPRJP1.node[8].app 	"Total sent" 	2627
scalar scenarioPRJP1.node[8].app 	"Total received" 	194
scalar scenarioPRJP1.node[8].app 	"Total deleted" 	0
scalar scenarioPRJP1.node[8].app 	dropPk:count 	0
attr interpolationmode  none
attr source  dropPk
attr title  "packets dropped, count"
scalar scenarioPRJP1.node[8].app 	dropPk:sum(packetBytes) 	0
attr interpolationmode  none
attr source  dropPk
attr title  "packets dropped, sum(packetBytes)"
scalar scenarioPRJP1.node[8].app 	outOfOrderPk:count 	0
attr interpolationmode  none
attr source  outOfOrderPk
attr title  "packets received out of order, count"
scalar scenarioPRJP1.node[8].app 	outOfOrderPk:sum(packetBytes) 	0
attr interpolationmode  none
attr source  outOfOrderPk
attr title  "packets received out of order, sum(packetBytes)"
scalar scenarioPRJP1.node[8].app 	rcvdPk:count 	194
attr interpolationmode  none
attr source  rcvdPk
attr title  "packets received, count"
scalar scenarioPRJP1.node[8].app 	rcvdPk:sum(packetBytes) 	99328
attr interpolationmode  none
attr source  rcvdPk
attr title  "packets received, sum(packetBytes)"
statistic scenarioPRJP1.node[8].app 	endToEndDelay:histogram
field count 194
field mean 0.0018104130361649
field stddev 0.0050520062481165
field sum 0.351220129016
field sqrsum 0.0055617475564186
field min 0.000945051195
field max 0.053441868768
attr interpolationmode  none
attr source  messageAge(rcvdPk)
attr title  "delay, histogram"
attr unit  s
bin	-INF	0
bin	-0.0253033575915	0
bin	-0.0218035697533	0
bin	-0.0183037819151	0
bin	-0.0148039940769	0
bin	-0.0113042062387	0
bin	-0.0078044184005	0
bin	-0.0043046305623	0
bin	-0.0008048427241	187
bin	0.0026949451141	3
bin	0.0061947329523	1
bin	0.0096945207905	0
bin	0.0131943086287	0
bin	0.0166940964669	0
bin	0.0201938843051	0
bin	0.0236936721433	1
bin	0.0271934599815	0
bin	0.0306932478197	0
bin	0.0341930356579	0
bin	0.0376928234961	1
bin	0.0411926113343	0
bin	0.0446923991725	0
bin	0.0481921870107	0
bin	0.0516919748489	1
bin	0.0551917626871	0
bin	0.0586915505253	0
bin	0.0621913383635	0
bin	0.0656911262017	0
bin	0.0691909140399	0
bin	0.0726907018781	0
bin	0.0761904897163	0
bin	0.0796902775545	0
scalar scenarioPRJP1.node[8].app 	sentPk:count 	2627
attr interpolationmode  none
attr source  sentPk
attr title  "packets sent, count"
scalar scenarioPRJP1.node[8].app 	sentPk:sum(packetBytes) 	1345024
attr interpolationmode  none
attr source  sentPk
attr title  "packets sent, sum(packetBytes)"
scalar scenarioPRJP1.node[8].udp 	droppedPkBadChecksum:count 	0
attr interpolationmode  none
attr title  "packets dropped (checksum error), count"
scalar scenarioPRJP1.node[8].udp 	droppedPkWrongPort:count 	0
attr interpolationmode  none
attr title  "packets dropped (wrong port), count"
scalar scenarioPRJP1.node[8].udp 	passedUpPk:count 	194
attr interpolationmode  none
attr title  "packets passed up, count"
scalar scenarioPRJP1.node[8].udp 	rcvdPk:count 	194
attr interpolationmode  none
attr source  rcvdPk
attr title  "packets received, count"
scalar scenarioPRJP1.node[8].udp 	rcvdPk:sum(packetBytes) 	100880
attr interpolationmode  none
attr source  rcvdPk
attr title  "packets received, sum(packetBytes)"
scalar scenarioPRJP1.node[8].udp 	sentPk:count 	2627
attr interpolationmode  none
attr source  sentPk
attr title  "packets sent, count"
scalar scenarioPRJP1.node[8].udp 	sentPk:sum(packetBytes) 	1366040
attr interpolationmode  none
attr source  sentPk
attr title  "packets sent, sum(packetBytes)"
scalar scenarioPRJP1.node[8].networkLayer.arp 	failedARPResolution:count 	6
attr title  "ARP failed resolutions, count"
scalar scenarioPRJP1.node[8].networkLayer.arp 	completedARPResolution:count 	23
attr title  "ARP completed resolutions, count"
scalar scenarioPRJP1.node[8].networkLayer.arp 	initiatedARPResolution:count 	16
attr title  "ARP initiated resolutions, count"
scalar scenarioPRJP1.node[8].networkLayer.arp 	sentReply:count 	10
attr title  "ARP replies sent, count"
scalar scenarioPRJP1.node[8].networkLayer.arp 	sentReq:count 	28
attr title  "ARP request sent, count"
scalar scenarioPRJP1.node[8].mobility 	startTime 	2.5
scalar scenarioPRJP1.node[8].mobility 	totalTime 	947.5
scalar scenarioPRJP1.node[8].mobility 	stopTime 	950
scalar scenarioPRJP1.node[8].mobility 	minSpeed 	2.4754610242003e-13
scalar scenarioPRJP1.node[8].mobility 	maxSpeed 	18.074146208618
scalar scenarioPRJP1.node[8].mobility 	totalDistance 	8480.8056314349
scalar scenarioPRJP1.node[8].mobility 	totalCO2Emission 	2411.388924467
scalar scenarioPRJP1.node[8].wlan.mgmt 	dataQueueLen:max 	0
attr interpolationmode  sample-hold
attr title  "data queue length, max"
scalar scenarioPRJP1.node[8].wlan.mgmt 	dataQueueLen:timeavg 	0
attr interpolationmode  sample-hold
attr title  "data queue length, timeavg"
scalar scenarioPRJP1.node[8].wlan.mgmt 	dropPkByQueue:count 	0
attr interpolationmode  none
attr source  dropPkByQueue
attr title  "packets dropped by queue, count"
scalar scenarioPRJP1.node[8].wlan.mgmt 	dropPkByQueue:sum(packetBytes) 	0
attr interpolationmode  none
attr source  dropPkByQueue
attr title  "packets dropped by queue, sum(packetBytes)"
scalar scenarioPRJP1.node[8].wlan.mac 	"number of received packets" 	692
scalar scenarioPRJP1.node[8].wlan.mac 	"number of collisions" 	16
scalar scenarioPRJP1.node[8].wlan.mac 	"number of internal collisions" 	0
scalar scenarioPRJP1.node[8].wlan.mac 	"number of retry for AC 0" 	1442
scalar scenarioPRJP1.node[8].wlan.mac 	"number of retry for AC 1" 	0
scalar scenarioPRJP1.node[8].wlan.mac 	"number of retry for AC 2" 	0
scalar scenarioPRJP1.node[8].wlan.mac 	"number of retry for AC 3" 	0
scalar scenarioPRJP1.node[8].wlan.mac 	"sent and received bits" 	12368544
scalar scenarioPRJP1.node[8].wlan.mac 	"sent packet within AC 0" 	111
scalar scenarioPRJP1.node[8].wlan.mac 	"sent packet within AC 1" 	3
scalar scenarioPRJP1.node[8].wlan.mac 	"sent packet within AC 2" 	0
scalar scenarioPRJP1.node[8].wlan.mac 	"sent packet within AC 3" 	0
scalar scenarioPRJP1.node[8].wlan.mac 	"sent in TXOP " 	0
scalar scenarioPRJP1.node[8].wlan.mac 	"sentWithoutRetry AC 0" 	110
scalar scenarioPRJP1.node[8].wlan.mac 	"sentWithoutRetry AC 1" 	3
scalar scenarioPRJP1.node[8].wlan.mac 	"sentWithoutRetry AC 2" 	0
scalar scenarioPRJP1.node[8].wlan.mac 	"sentWithoutRetry AC 3" 	0
scalar scenarioPRJP1.node[8].wlan.mac 	"numGivenUp AC 0" 	240
scalar scenarioPRJP1.node[8].wlan.mac 	"numGivenUp AC 1" 	0
scalar scenarioPRJP1.node[8].wlan.mac 	"numGivenUp AC 2" 	0
scalar scenarioPRJP1.node[8].wlan.mac 	"numGivenUp AC 3" 	0
scalar scenarioPRJP1.node[8].wlan.mac 	"numDropped AC 0" 	0
scalar scenarioPRJP1.node[8].wlan.mac 	"numDropped AC 1" 	0
scalar scenarioPRJP1.node[8].wlan.mac 	"numDropped AC 2" 	0
scalar scenarioPRJP1.node[8].wlan.mac 	"numDropped AC 3" 	0
scalar scenarioPRJP1.node[8].wlan.mac 	rcvdPkFromLL:count 	2944
attr interpolationmode  none
attr source  packetReceivedFromLower
attr title  "packets received from lower layer, count"
scalar scenarioPRJP1.node[8].wlan.mac 	rcvdPkFromLL:sum(packetBytes) 	1629952
attr interpolationmode  none
attr source  packetReceivedFromLower
attr title  "packets received from lower layer, sum(packetBytes)"
scalar scenarioPRJP1.node[8].wlan.mac 	sentDownPk:count 	3908
attr interpolationmode  none
attr source  packetSentToLower
attr title  "packets sent to lower layer, count"
scalar scenarioPRJP1.node[8].wlan.mac 	sentDownPk:sum(packetBytes) 	2495916
attr interpolationmode  none
attr source  packetSentToLower
attr title  "packets sent to lower layer, sum(packetBytes)"
scalar scenarioPRJP1.node[8].wlan.mac 	rcvdPkFromHL:count 	1774
attr interpolationmode  none
attr source  packetReceivedFromUpper
attr title  "packets received from higher layer, count"
scalar scenarioPRJP1.node[8].wlan.mac 	rcvdPkFromHL:sum(packetBytes) 	1680212
attr interpolationmode  none
attr source  packetReceivedFromUpper
attr title  "packets received from higher layer, sum(packetBytes)"
scalar scenarioPRJP1.node[8].wlan.mac 	passedUpPk:count 	1184
attr interpolationmode  none
attr source  packetSentToUpper
attr title  "packets passed to higher layer, count"
scalar scenarioPRJP1.node[8].wlan.mac 	passedUpPk:sum(packetBytes) 	1134252
attr interpolationmode  none
attr source  packetSentToUpper
attr title  "packets passed to higher layer, sum(packetBytes)"
statistic scenarioPRJP1.node[8].wlan.radio 	radioChannel:histogram
field count 1
field mean 3
field stddev -nan
field sum 3
field sqrsum 9
field min 3
field max 3
attr interpolationmode  sample-hold
attr source  radioChannelChanged
attr title  "Radio channel, histogram"
bin	-INF	0
bin	2	0
bin	3	1
bin	4	0
scalar scenarioPRJP1.node[8].wlan.radio 	transmissionState:count 	15632
attr interpolationmode  sample-hold
attr source  transmissionStateChanged
attr title  "Radio transmission state, count"
scalar scenarioPRJP1.node[8].wlan.radio 	receptionState:count 	13707
attr interpolationmode  sample-hold
attr source  receptionStateChanged
attr title  "Radio reception state, count"
scalar scenarioPRJP1.node[8].wlan.radio 	radioMode:count 	7818
attr interpolationmode  sample-hold
attr source  radioModeChanged
attr title  "Radio mode, count"
statistic scenarioPRJP1.node[8].wlan.radio 	symbolErrorRate:histogram
field count 0
field mean -nan
field stddev -nan
field sum 0
field sqrsum 0
field min -nan
field max -nan
attr source  symbolErrorRate
attr title  "Symbol error rate, histogram"
bin	-INF	0
bin	-0.5	0
bin	-0.46666666666667	0
bin	-0.43333333333333	0
bin	-0.4	0
bin	-0.36666666666667	0
bin	-0.33333333333333	0
bin	-0.3	0
bin	-0.26666666666667	0
bin	-0.23333333333333	0
bin	-0.2	0
bin	-0.16666666666667	0
bin	-0.13333333333333	0
bin	-0.1	0
bin	-0.066666666666667	0
bin	-0.033333333333333	0
bin	0	0
bin	0.033333333333333	0
bin	0.066666666666667	0
bin	0.1	0
bin	0.13333333333333	0
bin	0.16666666666667	0
bin	0.2	0
bin	0.23333333333333	0
bin	0.26666666666667	0
bin	0.3	0
bin	0.33333333333333	0
bin	0.36666666666667	0
bin	0.4	0
bin	0.43333333333333	0
bin	0.46666666666667	0
bin	0.5	0
statistic scenarioPRJP1.node[8].wlan.radio 	bitErrorRate:histogram
field count 0
field mean -nan
field stddev -nan
field sum 0
field sqrsum 0
field min -nan
field max -nan
attr source  bitErrorRate
attr title  "Bit error rate, histogram"
bin	-INF	0
bin	-0.5	0
bin	-0.46666666666667	0
bin	-0.43333333333333	0
bin	-0.4	0
bin	-0.36666666666667	0
bin	-0.33333333333333	0
bin	-0.3	0
bin	-0.26666666666667	0
bin	-0.23333333333333	0
bin	-0.2	0
bin	-0.16666666666667	0
bin	-0.13333333333333	0
bin	-0.1	0
bin	-0.066666666666667	0
bin	-0.033333333333333	0
bin	0	0
bin	0.033333333333333	0
bin	0.066666666666667	0
bin	0.1	0
bin	0.13333333333333	0
bin	0.16666666666667	0
bin	0.2	0
bin	0.23333333333333	0
bin	0.26666666666667	0
bin	0.3	0
bin	0.33333333333333	0
bin	0.36666666666667	0
bin	0.4	0
bin	0.43333333333333	0
bin	0.46666666666667	0
bin	0.5	0
statistic scenarioPRJP1.node[8].wlan.radio 	packetErrorRate:histogram
field count 2944
field mean 0.0053163634877159
field stddev 0.070959206708819
field sum 15.651374107836
field sqrsum 14.90182853012
field min 0
field max 1
attr source  packetErrorRate
attr title  "Packet error rate, histogram"
bin	-INF	0
bin	-0.5	0
bin	-0.46666666666667	0
bin	-0.43333333333333	0
bin	-0.4	0
bin	-0.36666666666667	0
bin	-0.33333333333333	0
bin	-0.3	0
bin	-0.26666666666667	0
bin	-0.23333333333333	0
bin	-0.2	0
bin	-0.16666666666667	0
bin	-0.13333333333333	0
bin	-0.1	0
bin	-0.066666666666667	0
bin	-0.033333333333333	0
bin	0	2920
bin	0.033333333333333	2
bin	0.066666666666667	6
bin	0.1	0
bin	0.13333333333333	0
bin	0.16666666666667	1
bin	0.2	0
bin	0.23333333333333	0
bin	0.26666666666667	0
bin	0.3	0
bin	0.33333333333333	0
bin	0.36666666666667	0
bin	0.4	0
bin	0.43333333333333	0
bin	0.46666666666667	0
bin	0.5	15
statistic scenarioPRJP1.node[8].wlan.radio 	minSNIR:histogram
field count 2944
field mean 6007.1474139732
field stddev 28273.336894399
field sum 17685041.986737
field sqrsum 2458816641657.9
field min 0.0075306801296736
field max 753774.71141886
attr source  minSNIR
attr title  "Min SNIR, histogram"
bin	-INF	0
bin	-16924.371328025	0
bin	-14650.810974062	0
bin	-12377.250620099	0
bin	-10103.690266136	0
bin	-7830.1299121735	0
bin	-5556.5695582106	0
bin	-3283.0092042477	0
bin	-1009.4488502848	2177
bin	1264.111503678	251
bin	3537.6718576409	88
bin	5811.2322116038	43
bin	8084.7925655667	34
bin	10358.35291953	15
bin	12631.913273492	25
bin	14905.473627455	18
bin	17179.033981418	22
bin	19452.594335381	13
bin	21726.154689344	16
bin	23999.715043307	94
bin	26273.27539727	6
bin	28546.835751233	5
bin	30820.396105196	2
bin	33093.956459158	16
bin	35367.516813121	14
bin	37641.077167084	7
bin	39914.637521047	9
bin	42188.19787501	6
bin	44461.758228973	4
bin	46735.318582936	5
bin	49008.878936899	1
bin	51282.439290861	73
scalar scenarioPRJP1.node[8].lo0.lo 	droppedPkBitError:count 	0
attr interpolationmode  none
attr source  dropPkBitError
attr title  "packets dropped/bit error, count"
scalar scenarioPRJP1.node[8].lo0.lo 	droppedPkBitError:sum(packetBytes) 	0
attr interpolationmode  none
attr source  dropPkBitError
attr title  "packets dropped/bit error, sum(packetBytes)"
scalar scenarioPRJP1.node[8].lo0.lo 	rcvdPkFromHL:count 	0
attr interpolationmode  none
attr source  packetReceivedFromUpper
attr title  "packets received from higher layer, count"
scalar scenarioPRJP1.node[8].lo0.lo 	rcvdPkFromHL:sum(packetBytes) 	0
attr interpolationmode  none
attr source  packetReceivedFromUpper
attr title  "packets received from higher layer, sum(packetBytes)"
scalar scenarioPRJP1.node[8].lo0.lo 	passedUpPk:count 	0
attr interpolationmode  none
attr source  packetSentToUpper
attr title  "packets passed to higher layer, count"
scalar scenarioPRJP1.node[8].lo0.lo 	passedUpPk:sum(packetBytes) 	0
attr interpolationmode  none
attr source  packetSentToUpper
attr title  "packets passed to higher layer, sum(packetBytes)"
