version 2
run DYMOUM-FS-100n-21-20150818-04:21:00-8084
attr configname DYMOUM-FS-100n
attr datetime 20150818-04:21:00
attr experiment DYMOUM-FS-100n
attr inifile omnetpp.ini
attr iterationvars ""
attr iterationvars2 $repetition=21
attr measurement ""
attr network Prj_Part1_propag.scenarioPRJP1
attr processid 8084
attr repetition 21
attr replication #21
attr resultdir results
attr runnumber 21
attr seedset 21

scalar scenarioPRJP1.radioMedium.propagation 	"Arrival computation count" 	336889538
scalar scenarioPRJP1.radioMedium 	"transmission count" 	3403031
scalar scenarioPRJP1.radioMedium 	"radio frame send count" 	336889534
scalar scenarioPRJP1.radioMedium 	"reception computation count" 	334505845
scalar scenarioPRJP1.radioMedium 	"interference computation count" 	842034156
scalar scenarioPRJP1.radioMedium 	"reception decision computation count" 	20722220
scalar scenarioPRJP1.radioMedium 	"listening decision computation count" 	497092829
scalar scenarioPRJP1.radioMedium 	"reception cache hit" 	91.141567163371
attr unit  %
scalar scenarioPRJP1.radioMedium 	"interference cache hit" 	50
attr unit  %
scalar scenarioPRJP1.radioMedium 	"noise cache hit" 	0
attr unit  %
scalar scenarioPRJP1.radioMedium 	"snir cache hit" 	0
attr unit  %
scalar scenarioPRJP1.radioMedium 	"reception decision cache hit" 	0
attr unit  %
scalar scenarioPRJP1.node[0].app 	"Total sent" 	2613
scalar scenarioPRJP1.node[0].app 	"Total received" 	434
scalar scenarioPRJP1.node[0].app 	"Total deleted" 	62
scalar scenarioPRJP1.node[0].app 	dropPk:count 	62
attr interpolationmode  none
attr source  dropPk
attr title  "packets dropped, count"
scalar scenarioPRJP1.node[0].app 	dropPk:sum(packetBytes) 	31744
attr interpolationmode  none
attr source  dropPk
attr title  "packets dropped, sum(packetBytes)"
scalar scenarioPRJP1.node[0].app 	outOfOrderPk:count 	0
attr interpolationmode  none
attr source  outOfOrderPk
attr title  "packets received out of order, count"
scalar scenarioPRJP1.node[0].app 	outOfOrderPk:sum(packetBytes) 	0
attr interpolationmode  none
attr source  outOfOrderPk
attr title  "packets received out of order, sum(packetBytes)"
scalar scenarioPRJP1.node[0].app 	rcvdPk:count 	434
attr interpolationmode  none
attr source  rcvdPk
attr title  "packets received, count"
scalar scenarioPRJP1.node[0].app 	rcvdPk:sum(packetBytes) 	222208
attr interpolationmode  none
attr source  rcvdPk
attr title  "packets received, sum(packetBytes)"
statistic scenarioPRJP1.node[0].app 	endToEndDelay:histogram
field count 434
field mean 5.045088649948
field stddev 5.7306244271517
field sum 2189.5684740774
field sqrsum 25266.311445606
field min 0.000945022956
field max 19.879760887955
attr interpolationmode  none
attr source  messageAge(rcvdPk)
attr title  "delay, histogram"
attr unit  s
bin	-INF	0
bin	-9.543048984051	0
bin	-8.2705077771933	0
bin	-6.9979665703355	0
bin	-5.7254253634778	0
bin	-4.4528841566201	0
bin	-3.1803429497623	0
bin	-1.9078017429046	0
bin	-0.63526053604686	170
bin	0.63728067081087	26
bin	1.9098218776686	31
bin	3.1823630845263	18
bin	4.4549042913841	25
bin	5.7274454982418	30
bin	6.9999867050995	17
bin	8.2725279119573	18
bin	9.545069118815	10
bin	10.817610325673	24
bin	12.09015153253	9
bin	13.362692739388	17
bin	14.635233946246	12
bin	15.907775153104	7
bin	17.180316359961	10
bin	18.452857566819	7
bin	19.725398773677	3
bin	20.997939980535	0
bin	22.270481187392	0
bin	23.54302239425	0
bin	24.815563601108	0
bin	26.088104807966	0
bin	27.360646014823	0
bin	28.633187221681	0
scalar scenarioPRJP1.node[0].app 	sentPk:count 	2613
attr interpolationmode  none
attr source  sentPk
attr title  "packets sent, count"
scalar scenarioPRJP1.node[0].app 	sentPk:sum(packetBytes) 	1337856
attr interpolationmode  none
attr source  sentPk
attr title  "packets sent, sum(packetBytes)"
scalar scenarioPRJP1.node[0].udp 	droppedPkBadChecksum:count 	0
attr interpolationmode  none
attr title  "packets dropped (checksum error), count"
scalar scenarioPRJP1.node[0].udp 	droppedPkWrongPort:count 	0
attr interpolationmode  none
attr title  "packets dropped (wrong port), count"
scalar scenarioPRJP1.node[0].udp 	passedUpPk:count 	496
attr interpolationmode  none
attr title  "packets passed up, count"
scalar scenarioPRJP1.node[0].udp 	rcvdPk:count 	496
attr interpolationmode  none
attr source  rcvdPk
attr title  "packets received, count"
scalar scenarioPRJP1.node[0].udp 	rcvdPk:sum(packetBytes) 	257920
attr interpolationmode  none
attr source  rcvdPk
attr title  "packets received, sum(packetBytes)"
scalar scenarioPRJP1.node[0].udp 	sentPk:count 	2613
attr interpolationmode  none
attr source  sentPk
attr title  "packets sent, count"
scalar scenarioPRJP1.node[0].udp 	sentPk:sum(packetBytes) 	1358760
attr interpolationmode  none
attr source  sentPk
attr title  "packets sent, sum(packetBytes)"
scalar scenarioPRJP1.node[0].networkLayer.arp 	failedARPResolution:count 	21
attr title  "ARP failed resolutions, count"
scalar scenarioPRJP1.node[0].networkLayer.arp 	completedARPResolution:count 	880
attr title  "ARP completed resolutions, count"
scalar scenarioPRJP1.node[0].networkLayer.arp 	initiatedARPResolution:count 	125
attr title  "ARP initiated resolutions, count"
scalar scenarioPRJP1.node[0].networkLayer.arp 	sentReply:count 	68
attr title  "ARP replies sent, count"
scalar scenarioPRJP1.node[0].networkLayer.arp 	sentReq:count 	212
attr title  "ARP request sent, count"
scalar scenarioPRJP1.node[0].manetrouting 	"simulated time" 	950
scalar scenarioPRJP1.node[0].manetrouting 	"Dymo totalSend " 	3446880
scalar scenarioPRJP1.node[0].manetrouting 	"Dymo Rreq send" 	1916354
scalar scenarioPRJP1.node[0].manetrouting 	"Dymo Rreq rec" 	1472166
scalar scenarioPRJP1.node[0].manetrouting 	"Dymo Rrep send" 	3516
scalar scenarioPRJP1.node[0].manetrouting 	"Dymo Rrep rec" 	2278
scalar scenarioPRJP1.node[0].manetrouting 	"Dymo Rerr send" 	9323
scalar scenarioPRJP1.node[0].manetrouting 	"Dymo Rerr rec" 	33142
scalar scenarioPRJP1.node[0].mobility 	startTime 	0.1
scalar scenarioPRJP1.node[0].mobility 	totalTime 	949.9
scalar scenarioPRJP1.node[0].mobility 	stopTime 	950
scalar scenarioPRJP1.node[0].mobility 	minSpeed 	2.4758057545412e-13
scalar scenarioPRJP1.node[0].mobility 	maxSpeed 	18.23389203097
scalar scenarioPRJP1.node[0].mobility 	totalDistance 	9946.6761521145
scalar scenarioPRJP1.node[0].mobility 	totalCO2Emission 	2764.8402163055
scalar scenarioPRJP1.node[0].wlan.mgmt 	dataQueueLen:max 	62
attr interpolationmode  sample-hold
attr title  "data queue length, max"
scalar scenarioPRJP1.node[0].wlan.mgmt 	dataQueueLen:timeavg 	0.0045856944461301
attr interpolationmode  sample-hold
attr title  "data queue length, timeavg"
scalar scenarioPRJP1.node[0].wlan.mgmt 	dropPkByQueue:count 	0
attr interpolationmode  none
attr source  dropPkByQueue
attr title  "packets dropped by queue, count"
scalar scenarioPRJP1.node[0].wlan.mgmt 	dropPkByQueue:sum(packetBytes) 	0
attr interpolationmode  none
attr source  dropPkByQueue
attr title  "packets dropped by queue, sum(packetBytes)"
scalar scenarioPRJP1.node[0].wlan.mac 	"number of received packets" 	5402
scalar scenarioPRJP1.node[0].wlan.mac 	"number of collisions" 	71569
scalar scenarioPRJP1.node[0].wlan.mac 	"number of internal collisions" 	0
scalar scenarioPRJP1.node[0].wlan.mac 	"number of retry for AC 0" 	12882
scalar scenarioPRJP1.node[0].wlan.mac 	"number of retry for AC 1" 	1
scalar scenarioPRJP1.node[0].wlan.mac 	"number of retry for AC 2" 	0
scalar scenarioPRJP1.node[0].wlan.mac 	"number of retry for AC 3" 	0
scalar scenarioPRJP1.node[0].wlan.mac 	"sent and received bits" 	22154672
scalar scenarioPRJP1.node[0].wlan.mac 	"sent packet within AC 0" 	1185
scalar scenarioPRJP1.node[0].wlan.mac 	"sent packet within AC 1" 	1
scalar scenarioPRJP1.node[0].wlan.mac 	"sent packet within AC 2" 	0
scalar scenarioPRJP1.node[0].wlan.mac 	"sent packet within AC 3" 	0
scalar scenarioPRJP1.node[0].wlan.mac 	"sent in TXOP " 	0
scalar scenarioPRJP1.node[0].wlan.mac 	"sentWithoutRetry AC 0" 	895
scalar scenarioPRJP1.node[0].wlan.mac 	"sentWithoutRetry AC 1" 	0
scalar scenarioPRJP1.node[0].wlan.mac 	"sentWithoutRetry AC 2" 	0
scalar scenarioPRJP1.node[0].wlan.mac 	"sentWithoutRetry AC 3" 	0
scalar scenarioPRJP1.node[0].wlan.mac 	"numGivenUp AC 0" 	2012
scalar scenarioPRJP1.node[0].wlan.mac 	"numGivenUp AC 1" 	0
scalar scenarioPRJP1.node[0].wlan.mac 	"numGivenUp AC 2" 	0
scalar scenarioPRJP1.node[0].wlan.mac 	"numGivenUp AC 3" 	0
scalar scenarioPRJP1.node[0].wlan.mac 	"numDropped AC 0" 	18
scalar scenarioPRJP1.node[0].wlan.mac 	"numDropped AC 1" 	0
scalar scenarioPRJP1.node[0].wlan.mac 	"numDropped AC 2" 	0
scalar scenarioPRJP1.node[0].wlan.mac 	"numDropped AC 3" 	0
scalar scenarioPRJP1.node[0].wlan.mac 	rcvdPkFromLL:count 	217823
attr interpolationmode  none
attr source  packetReceivedFromLower
attr title  "packets received from lower layer, count"
scalar scenarioPRJP1.node[0].wlan.mac 	rcvdPkFromLL:sum(packetBytes) 	68584407
attr interpolationmode  none
attr source  packetReceivedFromLower
attr title  "packets received from lower layer, sum(packetBytes)"
scalar scenarioPRJP1.node[0].wlan.mac 	sentDownPk:count 	36427
attr interpolationmode  none
attr source  packetSentToLower
attr title  "packets sent to lower layer, count"
scalar scenarioPRJP1.node[0].wlan.mac 	sentDownPk:sum(packetBytes) 	11153471
attr interpolationmode  none
attr source  packetSentToLower
attr title  "packets sent to lower layer, sum(packetBytes)"
scalar scenarioPRJP1.node[0].wlan.mac 	rcvdPkFromHL:count 	18164
attr interpolationmode  none
attr source  packetReceivedFromUpper
attr title  "packets received from higher layer, count"
scalar scenarioPRJP1.node[0].wlan.mac 	rcvdPkFromHL:sum(packetBytes) 	3900262
attr interpolationmode  none
attr source  packetReceivedFromUpper
attr title  "packets received from higher layer, sum(packetBytes)"
scalar scenarioPRJP1.node[0].wlan.mac 	passedUpPk:count 	59113
attr interpolationmode  none
attr source  packetSentToUpper
attr title  "packets passed to higher layer, count"
scalar scenarioPRJP1.node[0].wlan.mac 	passedUpPk:sum(packetBytes) 	9546485
attr interpolationmode  none
attr source  packetSentToUpper
attr title  "packets passed to higher layer, sum(packetBytes)"
statistic scenarioPRJP1.node[0].wlan.radio 	radioChannel:histogram
field count 1
field mean 3
field stddev nan
field sum 3
field sqrsum 9
field min 3
field max 3
attr interpolationmode  sample-hold
attr source  radioChannelChanged
attr title  "Radio channel, histogram"
bin	-INF	0
bin	2	0
bin	3	1
bin	4	0
scalar scenarioPRJP1.node[0].wlan.radio 	transmissionState:count 	145708
attr interpolationmode  sample-hold
attr source  transmissionStateChanged
attr title  "Radio transmission state, count"
scalar scenarioPRJP1.node[0].wlan.radio 	receptionState:count 	540323
attr interpolationmode  sample-hold
attr source  receptionStateChanged
attr title  "Radio reception state, count"
scalar scenarioPRJP1.node[0].wlan.radio 	radioMode:count 	72856
attr interpolationmode  sample-hold
attr source  radioModeChanged
attr title  "Radio mode, count"
statistic scenarioPRJP1.node[0].wlan.radio 	symbolErrorRate:histogram
field count 0
field mean nan
field stddev nan
field sum 0
field sqrsum 0
field min nan
field max nan
attr source  symbolErrorRate
attr title  "Symbol error rate, histogram"
bin	-INF	0
bin	-0.5	0
bin	-0.46666666666667	0
bin	-0.43333333333333	0
bin	-0.4	0
bin	-0.36666666666667	0
bin	-0.33333333333333	0
bin	-0.3	0
bin	-0.26666666666667	0
bin	-0.23333333333333	0
bin	-0.2	0
bin	-0.16666666666667	0
bin	-0.13333333333333	0
bin	-0.1	0
bin	-0.066666666666667	0
bin	-0.033333333333333	0
bin	0	0
bin	0.033333333333333	0
bin	0.066666666666667	0
bin	0.1	0
bin	0.13333333333333	0
bin	0.16666666666667	0
bin	0.2	0
bin	0.23333333333333	0
bin	0.26666666666667	0
bin	0.3	0
bin	0.33333333333333	0
bin	0.36666666666667	0
bin	0.4	0
bin	0.43333333333333	0
bin	0.46666666666667	0
bin	0.5	0
statistic scenarioPRJP1.node[0].wlan.radio 	bitErrorRate:histogram
field count 0
field mean nan
field stddev nan
field sum 0
field sqrsum 0
field min nan
field max nan
attr source  bitErrorRate
attr title  "Bit error rate, histogram"
bin	-INF	0
bin	-0.5	0
bin	-0.46666666666667	0
bin	-0.43333333333333	0
bin	-0.4	0
bin	-0.36666666666667	0
bin	-0.33333333333333	0
bin	-0.3	0
bin	-0.26666666666667	0
bin	-0.23333333333333	0
bin	-0.2	0
bin	-0.16666666666667	0
bin	-0.13333333333333	0
bin	-0.1	0
bin	-0.066666666666667	0
bin	-0.033333333333333	0
bin	0	0
bin	0.033333333333333	0
bin	0.066666666666667	0
bin	0.1	0
bin	0.13333333333333	0
bin	0.16666666666667	0
bin	0.2	0
bin	0.23333333333333	0
bin	0.26666666666667	0
bin	0.3	0
bin	0.33333333333333	0
bin	0.36666666666667	0
bin	0.4	0
bin	0.43333333333333	0
bin	0.46666666666667	0
bin	0.5	0
statistic scenarioPRJP1.node[0].wlan.radio 	packetErrorRate:histogram
field count 217823
field mean 0.30167484009862
field stddev 0.44840570196588
field sum 65711.718694801
field sqrsum 63620.535019069
field min 0
field max 1
attr source  packetErrorRate
attr title  "Packet error rate, histogram"
bin	-INF	0
bin	-0.5	0
bin	-0.43333333333333	0
bin	-0.36666666666667	0
bin	-0.3	0
bin	-0.23333333333333	0
bin	-0.16666666666667	0
bin	-0.1	0
bin	-0.033333333333333	143805
bin	0.033333333333333	3275
bin	0.1	1563
bin	0.16666666666667	1056
bin	0.23333333333333	940
bin	0.3	786
bin	0.36666666666667	683
bin	0.43333333333333	653
bin	0.5	569
bin	0.56666666666667	581
bin	0.63333333333333	549
bin	0.7	561
bin	0.76666666666667	628
bin	0.83333333333333	717
bin	0.9	1166
bin	0.96666666666667	60291
bin	1.0333333333333	0
bin	1.1	0
bin	1.1666666666667	0
bin	1.2333333333333	0
bin	1.3	0
bin	1.3666666666667	0
bin	1.4333333333333	0
bin	1.5	0
statistic scenarioPRJP1.node[0].wlan.radio 	minSNIR:histogram
field count 217823
field mean 1457.0769098825
field stddev 21361.156463059
field sum 317384863.74133
field sqrsum 99854416119300
field min 0.00016976188358155
field max 753239.71923443
attr source  minSNIR
attr title  "Min SNIR, histogram"
bin	-INF	0
bin	-7773.799968151	0
bin	-6737.215311857	0
bin	-5700.630655563	0
bin	-4664.045999269	0
bin	-3627.461342975	0
bin	-2590.876686681	0
bin	-1554.292030387	0
bin	-517.70737409303	196903
bin	518.87728220097	9247
bin	1555.461938495	2853
bin	2592.046594789	1545
bin	3628.631251083	1049
bin	4665.215907377	696
bin	5701.800563671	619
bin	6738.385219965	451
bin	7774.969876259	477
bin	8811.554532553	322
bin	9848.139188847	247
bin	10884.723845141	211
bin	11921.308501435	237
bin	12957.893157729	160
bin	13994.477814023	141
bin	15031.062470317	147
bin	16067.647126611	85
bin	17104.231782905	117
bin	18140.816439199	128
bin	19177.401095493	66
bin	20213.985751787	99
bin	21250.570408081	65
bin	22287.155064375	47
bin	23323.739720669	1911
scalar scenarioPRJP1.node[0].lo0.lo 	droppedPkBitError:count 	0
attr interpolationmode  none
attr source  dropPkBitError
attr title  "packets dropped/bit error, count"
scalar scenarioPRJP1.node[0].lo0.lo 	droppedPkBitError:sum(packetBytes) 	0
attr interpolationmode  none
attr source  dropPkBitError
attr title  "packets dropped/bit error, sum(packetBytes)"
scalar scenarioPRJP1.node[0].lo0.lo 	rcvdPkFromHL:count 	0
attr interpolationmode  none
attr source  packetReceivedFromUpper
attr title  "packets received from higher layer, count"
scalar scenarioPRJP1.node[0].lo0.lo 	rcvdPkFromHL:sum(packetBytes) 	0
attr interpolationmode  none
attr source  packetReceivedFromUpper
attr title  "packets received from higher layer, sum(packetBytes)"
scalar scenarioPRJP1.node[0].lo0.lo 	passedUpPk:count 	0
attr interpolationmode  none
attr source  packetSentToUpper
attr title  "packets passed to higher layer, count"
scalar scenarioPRJP1.node[0].lo0.lo 	passedUpPk:sum(packetBytes) 	0
attr interpolationmode  none
attr source  packetSentToUpper
attr title  "packets passed to higher layer, sum(packetBytes)"
scalar scenarioPRJP1.node[20].app 	"Total sent" 	2608
scalar scenarioPRJP1.node[20].app 	"Total received" 	324
scalar scenarioPRJP1.node[20].app 	"Total deleted" 	80
scalar scenarioPRJP1.node[20].app 	dropPk:count 	80
attr interpolationmode  none
attr source  dropPk
attr title  "packets dropped, count"
scalar scenarioPRJP1.node[20].app 	dropPk:sum(packetBytes) 	40960
attr interpolationmode  none
attr source  dropPk
attr title  "packets dropped, sum(packetBytes)"
scalar scenarioPRJP1.node[20].app 	outOfOrderPk:count 	0
attr interpolationmode  none
attr source  outOfOrderPk
attr title  "packets received out of order, count"
scalar scenarioPRJP1.node[20].app 	outOfOrderPk:sum(packetBytes) 	0
attr interpolationmode  none
attr source  outOfOrderPk
attr title  "packets received out of order, sum(packetBytes)"
scalar scenarioPRJP1.node[20].app 	rcvdPk:count 	324
attr interpolationmode  none
attr source  rcvdPk
attr title  "packets received, count"
scalar scenarioPRJP1.node[20].app 	rcvdPk:sum(packetBytes) 	165888
attr interpolationmode  none
attr source  rcvdPk
attr title  "packets received, sum(packetBytes)"
statistic scenarioPRJP1.node[20].app 	endToEndDelay:histogram
field count 324
field mean 4.8363514549237
field stddev 5.6953595228149
field sum 1566.9778713953
field sqrsum 18055.645498556
field min 0.000945083356
field max 19.950760665684
attr interpolationmode  none
attr source  messageAge(rcvdPk)
attr title  "delay, histogram"
attr unit  s
bin	-INF	0
bin	-9.7329606466535	0
bin	-8.4351048256321	0
bin	-7.1372490046107	0
bin	-5.8393931835893	0
bin	-4.5415373625679	0
bin	-3.2436815415465	0
bin	-1.9458257205251	0
bin	-0.6479698995037	128
bin	0.6498859215177	25
bin	1.9477417425391	19
bin	3.2455975635605	21
bin	4.5434533845819	25
bin	5.8413092056033	11
bin	7.1391650266247	17
bin	8.4370208476461	12
bin	9.7348766686675	8
bin	11.032732489689	10
bin	12.33058831071	14
bin	13.628444131732	5
bin	14.926299952753	11
bin	16.224155773775	5
bin	17.522011594796	4
bin	18.819867415817	9
bin	20.117723236839	0
bin	21.41557905786	0
bin	22.713434878881	0
bin	24.011290699903	0
bin	25.309146520924	0
bin	26.607002341946	0
bin	27.904858162967	0
bin	29.202713983988	0
scalar scenarioPRJP1.node[20].app 	sentPk:count 	2608
attr interpolationmode  none
attr source  sentPk
attr title  "packets sent, count"
scalar scenarioPRJP1.node[20].app 	sentPk:sum(packetBytes) 	1335296
attr interpolationmode  none
attr source  sentPk
attr title  "packets sent, sum(packetBytes)"
scalar scenarioPRJP1.node[20].udp 	droppedPkBadChecksum:count 	0
attr interpolationmode  none
attr title  "packets dropped (checksum error), count"
scalar scenarioPRJP1.node[20].udp 	droppedPkWrongPort:count 	0
attr interpolationmode  none
attr title  "packets dropped (wrong port), count"
scalar scenarioPRJP1.node[20].udp 	passedUpPk:count 	404
attr interpolationmode  none
attr title  "packets passed up, count"
scalar scenarioPRJP1.node[20].udp 	rcvdPk:count 	404
attr interpolationmode  none
attr source  rcvdPk
attr title  "packets received, count"
scalar scenarioPRJP1.node[20].udp 	rcvdPk:sum(packetBytes) 	210080
attr interpolationmode  none
attr source  rcvdPk
attr title  "packets received, sum(packetBytes)"
scalar scenarioPRJP1.node[20].udp 	sentPk:count 	2608
attr interpolationmode  none
attr source  sentPk
attr title  "packets sent, count"
scalar scenarioPRJP1.node[20].udp 	sentPk:sum(packetBytes) 	1356160
attr interpolationmode  none
attr source  sentPk
attr title  "packets sent, sum(packetBytes)"
scalar scenarioPRJP1.node[20].networkLayer.arp 	failedARPResolution:count 	7
attr title  "ARP failed resolutions, count"
scalar scenarioPRJP1.node[20].networkLayer.arp 	completedARPResolution:count 	671
attr title  "ARP completed resolutions, count"
scalar scenarioPRJP1.node[20].networkLayer.arp 	initiatedARPResolution:count 	88
attr title  "ARP initiated resolutions, count"
scalar scenarioPRJP1.node[20].networkLayer.arp 	sentReply:count 	62
attr title  "ARP replies sent, count"
scalar scenarioPRJP1.node[20].networkLayer.arp 	sentReq:count 	146
attr title  "ARP request sent, count"
scalar scenarioPRJP1.node[20].mobility 	startTime 	2.5
scalar scenarioPRJP1.node[20].mobility 	totalTime 	947.5
scalar scenarioPRJP1.node[20].mobility 	stopTime 	950
scalar scenarioPRJP1.node[20].mobility 	minSpeed 	2.4754282371503e-13
scalar scenarioPRJP1.node[20].mobility 	maxSpeed 	16.384260077409
scalar scenarioPRJP1.node[20].mobility 	totalDistance 	8956.7019480129
scalar scenarioPRJP1.node[20].mobility 	totalCO2Emission 	2280.4166553654
scalar scenarioPRJP1.node[20].wlan.mgmt 	dataQueueLen:max 	12
attr interpolationmode  sample-hold
attr title  "data queue length, max"
scalar scenarioPRJP1.node[20].wlan.mgmt 	dataQueueLen:timeavg 	0
attr interpolationmode  sample-hold
attr title  "data queue length, timeavg"
scalar scenarioPRJP1.node[20].wlan.mgmt 	dropPkByQueue:count 	0
attr interpolationmode  none
attr source  dropPkByQueue
attr title  "packets dropped by queue, count"
scalar scenarioPRJP1.node[20].wlan.mgmt 	dropPkByQueue:sum(packetBytes) 	0
attr interpolationmode  none
attr source  dropPkByQueue
attr title  "packets dropped by queue, sum(packetBytes)"
scalar scenarioPRJP1.node[20].wlan.mac 	"number of received packets" 	5474
scalar scenarioPRJP1.node[20].wlan.mac 	"number of collisions" 	57429
scalar scenarioPRJP1.node[20].wlan.mac 	"number of internal collisions" 	0
scalar scenarioPRJP1.node[20].wlan.mac 	"number of retry for AC 0" 	13389
scalar scenarioPRJP1.node[20].wlan.mac 	"number of retry for AC 1" 	12
scalar scenarioPRJP1.node[20].wlan.mac 	"number of retry for AC 2" 	0
scalar scenarioPRJP1.node[20].wlan.mac 	"number of retry for AC 3" 	0
scalar scenarioPRJP1.node[20].wlan.mac 	"sent and received bits" 	21209360
scalar scenarioPRJP1.node[20].wlan.mac 	"sent packet within AC 0" 	1118
scalar scenarioPRJP1.node[20].wlan.mac 	"sent packet within AC 1" 	1
scalar scenarioPRJP1.node[20].wlan.mac 	"sent packet within AC 2" 	0
scalar scenarioPRJP1.node[20].wlan.mac 	"sent packet within AC 3" 	0
scalar scenarioPRJP1.node[20].wlan.mac 	"sent in TXOP " 	0
scalar scenarioPRJP1.node[20].wlan.mac 	"sentWithoutRetry AC 0" 	879
scalar scenarioPRJP1.node[20].wlan.mac 	"sentWithoutRetry AC 1" 	1
scalar scenarioPRJP1.node[20].wlan.mac 	"sentWithoutRetry AC 2" 	0
scalar scenarioPRJP1.node[20].wlan.mac 	"sentWithoutRetry AC 3" 	0
scalar scenarioPRJP1.node[20].wlan.mac 	"numGivenUp AC 0" 	2129
scalar scenarioPRJP1.node[20].wlan.mac 	"numGivenUp AC 1" 	2
scalar scenarioPRJP1.node[20].wlan.mac 	"numGivenUp AC 2" 	0
scalar scenarioPRJP1.node[20].wlan.mac 	"numGivenUp AC 3" 	0
scalar scenarioPRJP1.node[20].wlan.mac 	"numDropped AC 0" 	0
scalar scenarioPRJP1.node[20].wlan.mac 	"numDropped AC 1" 	0
scalar scenarioPRJP1.node[20].wlan.mac 	"numDropped AC 2" 	0
scalar scenarioPRJP1.node[20].wlan.mac 	"numDropped AC 3" 	0
scalar scenarioPRJP1.node[20].wlan.mac 	rcvdPkFromLL:count 	185847
attr interpolationmode  none
attr source  packetReceivedFromLower
attr title  "packets received from lower layer, count"
scalar scenarioPRJP1.node[20].wlan.mac 	rcvdPkFromLL:sum(packetBytes) 	58110072
attr interpolationmode  none
attr source  packetReceivedFromLower
attr title  "packets received from lower layer, sum(packetBytes)"
scalar scenarioPRJP1.node[20].wlan.mac 	sentDownPk:count 	36488
attr interpolationmode  none
attr source  packetSentToLower
attr title  "packets sent to lower layer, count"
scalar scenarioPRJP1.node[20].wlan.mac 	sentDownPk:sum(packetBytes) 	11432723
attr interpolationmode  none
attr source  packetSentToLower
attr title  "packets sent to lower layer, sum(packetBytes)"
scalar scenarioPRJP1.node[20].wlan.mac 	rcvdPkFromHL:count 	17613
attr interpolationmode  none
attr source  packetReceivedFromUpper
attr title  "packets received from higher layer, count"
scalar scenarioPRJP1.node[20].wlan.mac 	rcvdPkFromHL:sum(packetBytes) 	3844843
attr interpolationmode  none
attr source  packetReceivedFromUpper
attr title  "packets received from higher layer, sum(packetBytes)"
scalar scenarioPRJP1.node[20].wlan.mac 	passedUpPk:count 	56170
attr interpolationmode  none
attr source  packetSentToUpper
attr title  "packets passed to higher layer, count"
scalar scenarioPRJP1.node[20].wlan.mac 	passedUpPk:sum(packetBytes) 	8934713
attr interpolationmode  none
attr source  packetSentToUpper
attr title  "packets passed to higher layer, sum(packetBytes)"
statistic scenarioPRJP1.node[20].wlan.radio 	radioChannel:histogram
field count 1
field mean 3
field stddev nan
field sum 3
field sqrsum 9
field min 3
field max 3
attr interpolationmode  sample-hold
attr source  radioChannelChanged
attr title  "Radio channel, histogram"
bin	-INF	0
bin	2	0
bin	3	1
bin	4	0
scalar scenarioPRJP1.node[20].wlan.radio 	transmissionState:count 	145952
attr interpolationmode  sample-hold
attr source  transmissionStateChanged
attr title  "Radio transmission state, count"
scalar scenarioPRJP1.node[20].wlan.radio 	receptionState:count 	465394
attr interpolationmode  sample-hold
attr source  receptionStateChanged
attr title  "Radio reception state, count"
scalar scenarioPRJP1.node[20].wlan.radio 	radioMode:count 	72978
attr interpolationmode  sample-hold
attr source  radioModeChanged
attr title  "Radio mode, count"
statistic scenarioPRJP1.node[20].wlan.radio 	symbolErrorRate:histogram
field count 0
field mean nan
field stddev nan
field sum 0
field sqrsum 0
field min nan
field max nan
attr source  symbolErrorRate
attr title  "Symbol error rate, histogram"
bin	-INF	0
bin	-0.5	0
bin	-0.46666666666667	0
bin	-0.43333333333333	0
bin	-0.4	0
bin	-0.36666666666667	0
bin	-0.33333333333333	0
bin	-0.3	0
bin	-0.26666666666667	0
bin	-0.23333333333333	0
bin	-0.2	0
bin	-0.16666666666667	0
bin	-0.13333333333333	0
bin	-0.1	0
bin	-0.066666666666667	0
bin	-0.033333333333333	0
bin	0	0
bin	0.033333333333333	0
bin	0.066666666666667	0
bin	0.1	0
bin	0.13333333333333	0
bin	0.16666666666667	0
bin	0.2	0
bin	0.23333333333333	0
bin	0.26666666666667	0
bin	0.3	0
bin	0.33333333333333	0
bin	0.36666666666667	0
bin	0.4	0
bin	0.43333333333333	0
bin	0.46666666666667	0
bin	0.5	0
statistic scenarioPRJP1.node[20].wlan.radio 	bitErrorRate:histogram
field count 0
field mean nan
field stddev nan
field sum 0
field sqrsum 0
field min nan
field max nan
attr source  bitErrorRate
attr title  "Bit error rate, histogram"
bin	-INF	0
bin	-0.5	0
bin	-0.46666666666667	0
bin	-0.43333333333333	0
bin	-0.4	0
bin	-0.36666666666667	0
bin	-0.33333333333333	0
bin	-0.3	0
bin	-0.26666666666667	0
bin	-0.23333333333333	0
bin	-0.2	0
bin	-0.16666666666667	0
bin	-0.13333333333333	0
bin	-0.1	0
bin	-0.066666666666667	0
bin	-0.033333333333333	0
bin	0	0
bin	0.033333333333333	0
bin	0.066666666666667	0
bin	0.1	0
bin	0.13333333333333	0
bin	0.16666666666667	0
bin	0.2	0
bin	0.23333333333333	0
bin	0.26666666666667	0
bin	0.3	0
bin	0.33333333333333	0
bin	0.36666666666667	0
bin	0.4	0
bin	0.43333333333333	0
bin	0.46666666666667	0
bin	0.5	0
statistic scenarioPRJP1.node[20].wlan.radio 	packetErrorRate:histogram
field count 185847
field mean 0.28283375389404
field stddev 0.43901257558312
field sum 52563.804659946
field sqrsum 50685.297179275
field min 0
field max 1
attr source  packetErrorRate
attr title  "Packet error rate, histogram"
bin	-INF	0
bin	-0.5	0
bin	-0.43333333333333	0
bin	-0.36666666666667	0
bin	-0.3	0
bin	-0.23333333333333	0
bin	-0.16666666666667	0
bin	-0.1	0
bin	-0.033333333333333	125752
bin	0.033333333333333	2955
bin	0.1	1499
bin	0.16666666666667	1020
bin	0.23333333333333	762
bin	0.3	650
bin	0.36666666666667	653
bin	0.43333333333333	573
bin	0.5	541
bin	0.56666666666667	502
bin	0.63333333333333	460
bin	0.7	501
bin	0.76666666666667	591
bin	0.83333333333333	661
bin	0.9	1074
bin	0.96666666666667	47653
bin	1.0333333333333	0
bin	1.1	0
bin	1.1666666666667	0
bin	1.2333333333333	0
bin	1.3	0
bin	1.3666666666667	0
bin	1.4333333333333	0
bin	1.5	0
statistic scenarioPRJP1.node[20].wlan.radio 	minSNIR:histogram
field count 185847
field mean 938.92321803832
field stddev 17697.109537067
field sum 174496063.30277
field sqrsum 58368517091503
field min 0.00016939869706591
field max 4068718.1074036
attr source  minSNIR
attr title  "Min SNIR, histogram"
bin	-INF	0
bin	-19755.145323645	0
bin	-17120.953286837	0
bin	-14486.76125003	0
bin	-11852.569213223	0
bin	-9218.3771764152	0
bin	-6584.1851396077	0
bin	-3949.9931028003	0
bin	-1315.8010659929	176029
bin	1318.3909708145	4635
bin	3952.583007622	1783
bin	6586.7750444294	609
bin	9220.9670812368	711
bin	11855.159118044	296
bin	14489.351154852	213
bin	17123.543191659	360
bin	19757.735228467	229
bin	22391.927265274	112
bin	25026.119302081	72
bin	27660.311338889	79
bin	30294.503375696	38
bin	32928.695412504	33
bin	35562.887449311	34
bin	38197.079486118	66
bin	40831.271522926	30
bin	43465.463559733	78
bin	46099.655596541	43
bin	48733.847633348	52
bin	51368.039670156	17
bin	54002.231706963	6
bin	56636.42374377	13
bin	59270.615780578	309
scalar scenarioPRJP1.node[20].lo0.lo 	droppedPkBitError:count 	0
attr interpolationmode  none
attr source  dropPkBitError
attr title  "packets dropped/bit error, count"
scalar scenarioPRJP1.node[20].lo0.lo 	droppedPkBitError:sum(packetBytes) 	0
attr interpolationmode  none
attr source  dropPkBitError
attr title  "packets dropped/bit error, sum(packetBytes)"
scalar scenarioPRJP1.node[20].lo0.lo 	rcvdPkFromHL:count 	0
attr interpolationmode  none
attr source  packetReceivedFromUpper
attr title  "packets received from higher layer, count"
scalar scenarioPRJP1.node[20].lo0.lo 	rcvdPkFromHL:sum(packetBytes) 	0
attr interpolationmode  none
attr source  packetReceivedFromUpper
attr title  "packets received from higher layer, sum(packetBytes)"
scalar scenarioPRJP1.node[20].lo0.lo 	passedUpPk:count 	0
attr interpolationmode  none
attr source  packetSentToUpper
attr title  "packets passed to higher layer, count"
scalar scenarioPRJP1.node[20].lo0.lo 	passedUpPk:sum(packetBytes) 	0
attr interpolationmode  none
attr source  packetSentToUpper
attr title  "packets passed to higher layer, sum(packetBytes)"
scalar scenarioPRJP1.node[41].app 	"Total sent" 	2613
scalar scenarioPRJP1.node[41].app 	"Total received" 	353
scalar scenarioPRJP1.node[41].app 	"Total deleted" 	54
scalar scenarioPRJP1.node[41].app 	dropPk:count 	54
attr interpolationmode  none
attr source  dropPk
attr title  "packets dropped, count"
scalar scenarioPRJP1.node[41].app 	dropPk:sum(packetBytes) 	27648
attr interpolationmode  none
attr source  dropPk
attr title  "packets dropped, sum(packetBytes)"
scalar scenarioPRJP1.node[41].app 	outOfOrderPk:count 	0
attr interpolationmode  none
attr source  outOfOrderPk
attr title  "packets received out of order, count"
scalar scenarioPRJP1.node[41].app 	outOfOrderPk:sum(packetBytes) 	0
attr interpolationmode  none
attr source  outOfOrderPk
attr title  "packets received out of order, sum(packetBytes)"
scalar scenarioPRJP1.node[41].app 	rcvdPk:count 	353
attr interpolationmode  none
attr source  rcvdPk
attr title  "packets received, count"
scalar scenarioPRJP1.node[41].app 	rcvdPk:sum(packetBytes) 	180736
attr interpolationmode  none
attr source  rcvdPk
attr title  "packets received, sum(packetBytes)"
statistic scenarioPRJP1.node[41].app 	endToEndDelay:histogram
field count 353
field mean 5.6698570078714
field stddev 6.2737345447104
field sum 2001.4595237786
field sqrsum 25202.619595264
field min 0.000945025174
field max 19.875477680465
attr interpolationmode  none
attr source  messageAge(rcvdPk)
attr title  "delay, histogram"
attr unit  s
bin	-INF	0
bin	-9.182146513462	0
bin	-7.9577343002929	0
bin	-6.7333220871239	0
bin	-5.5089098739548	0
bin	-4.2844976607857	0
bin	-3.0600854476167	0
bin	-1.8356732344476	0
bin	-0.61126102127853	145
bin	0.61315119189053	12
bin	1.8375634050596	20
bin	3.0619756182287	15
bin	4.2863878313977	11
bin	5.5108000445668	12
bin	6.7352122577359	20
bin	7.9596244709049	15
bin	9.184036684074	9
bin	10.408448897243	16
bin	11.632861110412	11
bin	12.857273323581	16
bin	14.08168553675	14
bin	15.306097749919	11
bin	16.530509963088	8
bin	17.754922176257	11
bin	18.979334389427	7
bin	20.203746602596	0
bin	21.428158815765	0
bin	22.652571028934	0
bin	23.876983242103	0
bin	25.101395455272	0
bin	26.325807668441	0
bin	27.55021988161	0
scalar scenarioPRJP1.node[41].app 	sentPk:count 	2613
attr interpolationmode  none
attr source  sentPk
attr title  "packets sent, count"
scalar scenarioPRJP1.node[41].app 	sentPk:sum(packetBytes) 	1337856
attr interpolationmode  none
attr source  sentPk
attr title  "packets sent, sum(packetBytes)"
scalar scenarioPRJP1.node[41].udp 	droppedPkBadChecksum:count 	0
attr interpolationmode  none
attr title  "packets dropped (checksum error), count"
scalar scenarioPRJP1.node[41].udp 	droppedPkWrongPort:count 	0
attr interpolationmode  none
attr title  "packets dropped (wrong port), count"
scalar scenarioPRJP1.node[41].udp 	passedUpPk:count 	407
attr interpolationmode  none
attr title  "packets passed up, count"
scalar scenarioPRJP1.node[41].udp 	rcvdPk:count 	407
attr interpolationmode  none
attr source  rcvdPk
attr title  "packets received, count"
scalar scenarioPRJP1.node[41].udp 	rcvdPk:sum(packetBytes) 	211640
attr interpolationmode  none
attr source  rcvdPk
attr title  "packets received, sum(packetBytes)"
scalar scenarioPRJP1.node[41].udp 	sentPk:count 	2613
attr interpolationmode  none
attr source  sentPk
attr title  "packets sent, count"
scalar scenarioPRJP1.node[41].udp 	sentPk:sum(packetBytes) 	1358760
attr interpolationmode  none
attr source  sentPk
attr title  "packets sent, sum(packetBytes)"
scalar scenarioPRJP1.node[41].networkLayer.arp 	failedARPResolution:count 	10
attr title  "ARP failed resolutions, count"
scalar scenarioPRJP1.node[41].networkLayer.arp 	completedARPResolution:count 	671
attr title  "ARP completed resolutions, count"
scalar scenarioPRJP1.node[41].networkLayer.arp 	initiatedARPResolution:count 	85
attr title  "ARP initiated resolutions, count"
scalar scenarioPRJP1.node[41].networkLayer.arp 	sentReply:count 	55
attr title  "ARP replies sent, count"
scalar scenarioPRJP1.node[41].networkLayer.arp 	sentReq:count 	146
attr title  "ARP request sent, count"
scalar scenarioPRJP1.node[41].mobility 	startTime 	4.9
scalar scenarioPRJP1.node[41].mobility 	totalTime 	945.1
scalar scenarioPRJP1.node[41].mobility 	stopTime 	950
scalar scenarioPRJP1.node[41].mobility 	minSpeed 	2.4756165792184e-13
scalar scenarioPRJP1.node[41].mobility 	maxSpeed 	19.731108774169
scalar scenarioPRJP1.node[41].mobility 	totalDistance 	9961.1912658836
scalar scenarioPRJP1.node[41].mobility 	totalCO2Emission 	2787.9828573539
scalar scenarioPRJP1.node[41].wlan.mgmt 	dataQueueLen:max 	35
attr interpolationmode  sample-hold
attr title  "data queue length, max"
scalar scenarioPRJP1.node[41].wlan.mgmt 	dataQueueLen:timeavg 	0
attr interpolationmode  sample-hold
attr title  "data queue length, timeavg"
scalar scenarioPRJP1.node[41].wlan.mgmt 	dropPkByQueue:count 	0
attr interpolationmode  none
attr source  dropPkByQueue
attr title  "packets dropped by queue, count"
scalar scenarioPRJP1.node[41].wlan.mgmt 	dropPkByQueue:sum(packetBytes) 	0
attr interpolationmode  none
attr source  dropPkByQueue
attr title  "packets dropped by queue, sum(packetBytes)"
scalar scenarioPRJP1.node[41].wlan.mac 	"number of received packets" 	3365
scalar scenarioPRJP1.node[41].wlan.mac 	"number of collisions" 	47306
scalar scenarioPRJP1.node[41].wlan.mac 	"number of internal collisions" 	0
scalar scenarioPRJP1.node[41].wlan.mac 	"number of retry for AC 0" 	8963
scalar scenarioPRJP1.node[41].wlan.mac 	"number of retry for AC 1" 	0
scalar scenarioPRJP1.node[41].wlan.mac 	"number of retry for AC 2" 	0
scalar scenarioPRJP1.node[41].wlan.mac 	"number of retry for AC 3" 	0
scalar scenarioPRJP1.node[41].wlan.mac 	"sent and received bits" 	19346656
scalar scenarioPRJP1.node[41].wlan.mac 	"sent packet within AC 0" 	778
scalar scenarioPRJP1.node[41].wlan.mac 	"sent packet within AC 1" 	0
scalar scenarioPRJP1.node[41].wlan.mac 	"sent packet within AC 2" 	0
scalar scenarioPRJP1.node[41].wlan.mac 	"sent packet within AC 3" 	0
scalar scenarioPRJP1.node[41].wlan.mac 	"sent in TXOP " 	0
scalar scenarioPRJP1.node[41].wlan.mac 	"sentWithoutRetry AC 0" 	585
scalar scenarioPRJP1.node[41].wlan.mac 	"sentWithoutRetry AC 1" 	0
scalar scenarioPRJP1.node[41].wlan.mac 	"sentWithoutRetry AC 2" 	0
scalar scenarioPRJP1.node[41].wlan.mac 	"sentWithoutRetry AC 3" 	0
scalar scenarioPRJP1.node[41].wlan.mac 	"numGivenUp AC 0" 	1406
scalar scenarioPRJP1.node[41].wlan.mac 	"numGivenUp AC 1" 	0
scalar scenarioPRJP1.node[41].wlan.mac 	"numGivenUp AC 2" 	0
scalar scenarioPRJP1.node[41].wlan.mac 	"numGivenUp AC 3" 	0
scalar scenarioPRJP1.node[41].wlan.mac 	"numDropped AC 0" 	0
scalar scenarioPRJP1.node[41].wlan.mac 	"numDropped AC 1" 	0
scalar scenarioPRJP1.node[41].wlan.mac 	"numDropped AC 2" 	0
scalar scenarioPRJP1.node[41].wlan.mac 	"numDropped AC 3" 	0
scalar scenarioPRJP1.node[41].wlan.mac 	rcvdPkFromLL:count 	181713
attr interpolationmode  none
attr source  packetReceivedFromLower
attr title  "packets received from lower layer, count"
scalar scenarioPRJP1.node[41].wlan.mac 	rcvdPkFromLL:sum(packetBytes) 	54378655
attr interpolationmode  none
attr source  packetReceivedFromLower
attr title  "packets received from lower layer, sum(packetBytes)"
scalar scenarioPRJP1.node[41].wlan.mac 	sentDownPk:count 	29390
attr interpolationmode  none
attr source  packetSentToLower
attr title  "packets sent to lower layer, count"
scalar scenarioPRJP1.node[41].wlan.mac 	sentDownPk:sum(packetBytes) 	8223355
attr interpolationmode  none
attr source  packetSentToLower
attr title  "packets sent to lower layer, sum(packetBytes)"
scalar scenarioPRJP1.node[41].wlan.mac 	rcvdPkFromHL:count 	17062
attr interpolationmode  none
attr source  packetReceivedFromUpper
attr title  "packets received from higher layer, count"
scalar scenarioPRJP1.node[41].wlan.mac 	rcvdPkFromHL:sum(packetBytes) 	3198248
attr interpolationmode  none
attr source  packetReceivedFromUpper
attr title  "packets received from higher layer, sum(packetBytes)"
scalar scenarioPRJP1.node[41].wlan.mac 	passedUpPk:count 	61177
attr interpolationmode  none
attr source  packetSentToUpper
attr title  "packets passed to higher layer, count"
scalar scenarioPRJP1.node[41].wlan.mac 	passedUpPk:sum(packetBytes) 	8919802
attr interpolationmode  none
attr source  packetSentToUpper
attr title  "packets passed to higher layer, sum(packetBytes)"
statistic scenarioPRJP1.node[41].wlan.radio 	radioChannel:histogram
field count 1
field mean 3
field stddev nan
field sum 3
field sqrsum 9
field min 3
field max 3
attr interpolationmode  sample-hold
attr source  radioChannelChanged
attr title  "Radio channel, histogram"
bin	-INF	0
bin	2	0
bin	3	1
bin	4	0
scalar scenarioPRJP1.node[41].wlan.radio 	transmissionState:count 	117560
attr interpolationmode  sample-hold
attr source  transmissionStateChanged
attr title  "Radio transmission state, count"
scalar scenarioPRJP1.node[41].wlan.radio 	receptionState:count 	445932
attr interpolationmode  sample-hold
attr source  receptionStateChanged
attr title  "Radio reception state, count"
scalar scenarioPRJP1.node[41].wlan.radio 	radioMode:count 	58782
attr interpolationmode  sample-hold
attr source  radioModeChanged
attr title  "Radio mode, count"
statistic scenarioPRJP1.node[41].wlan.radio 	symbolErrorRate:histogram
field count 0
field mean nan
field stddev nan
field sum 0
field sqrsum 0
field min nan
field max nan
attr source  symbolErrorRate
attr title  "Symbol error rate, histogram"
bin	-INF	0
bin	-0.5	0
bin	-0.46666666666667	0
bin	-0.43333333333333	0
bin	-0.4	0
bin	-0.36666666666667	0
bin	-0.33333333333333	0
bin	-0.3	0
bin	-0.26666666666667	0
bin	-0.23333333333333	0
bin	-0.2	0
bin	-0.16666666666667	0
bin	-0.13333333333333	0
bin	-0.1	0
bin	-0.066666666666667	0
bin	-0.033333333333333	0
bin	0	0
bin	0.033333333333333	0
bin	0.066666666666667	0
bin	0.1	0
bin	0.13333333333333	0
bin	0.16666666666667	0
bin	0.2	0
bin	0.23333333333333	0
bin	0.26666666666667	0
bin	0.3	0
bin	0.33333333333333	0
bin	0.36666666666667	0
bin	0.4	0
bin	0.43333333333333	0
bin	0.46666666666667	0
bin	0.5	0
statistic scenarioPRJP1.node[41].wlan.radio 	bitErrorRate:histogram
field count 0
field mean nan
field stddev nan
field sum 0
field sqrsum 0
field min nan
field max nan
attr source  bitErrorRate
attr title  "Bit error rate, histogram"
bin	-INF	0
bin	-0.5	0
bin	-0.46666666666667	0
bin	-0.43333333333333	0
bin	-0.4	0
bin	-0.36666666666667	0
bin	-0.33333333333333	0
bin	-0.3	0
bin	-0.26666666666667	0
bin	-0.23333333333333	0
bin	-0.2	0
bin	-0.16666666666667	0
bin	-0.13333333333333	0
bin	-0.1	0
bin	-0.066666666666667	0
bin	-0.033333333333333	0
bin	0	0
bin	0.033333333333333	0
bin	0.066666666666667	0
bin	0.1	0
bin	0.13333333333333	0
bin	0.16666666666667	0
bin	0.2	0
bin	0.23333333333333	0
bin	0.26666666666667	0
bin	0.3	0
bin	0.33333333333333	0
bin	0.36666666666667	0
bin	0.4	0
bin	0.43333333333333	0
bin	0.46666666666667	0
bin	0.5	0
statistic scenarioPRJP1.node[41].wlan.radio 	packetErrorRate:histogram
field count 181713
field mean 0.23792978905445
field stddev 0.41563347839712
field sum 43234.935758452
field sqrsum 41677.84308488
field min 0
field max 1
attr source  packetErrorRate
attr title  "Packet error rate, histogram"
bin	-INF	0
bin	-0.5	0
bin	-0.43333333333333	0
bin	-0.36666666666667	0
bin	-0.3	0
bin	-0.23333333333333	0
bin	-0.16666666666667	0
bin	-0.1	0
bin	-0.033333333333333	132167
bin	0.033333333333333	2488
bin	0.1	1275
bin	0.16666666666667	857
bin	0.23333333333333	660
bin	0.3	569
bin	0.36666666666667	496
bin	0.43333333333333	433
bin	0.5	433
bin	0.56666666666667	398
bin	0.63333333333333	429
bin	0.7	453
bin	0.76666666666667	467
bin	0.83333333333333	543
bin	0.9	793
bin	0.96666666666667	39252
bin	1.0333333333333	0
bin	1.1	0
bin	1.1666666666667	0
bin	1.2333333333333	0
bin	1.3	0
bin	1.3666666666667	0
bin	1.4333333333333	0
bin	1.5	0
statistic scenarioPRJP1.node[41].wlan.radio 	minSNIR:histogram
field count 181713
field mean 2472.4824465474
field stddev 28083.548199253
field sum 449282202.80946
field sqrsum 1.4442449454599e+14
field min 0.00017010502669508
field max 753239.71923443
attr source  minSNIR
attr title  "Min SNIR, histogram"
bin	-INF	0
bin	-2701.8441843088	0
bin	-2341.4161395534	0
bin	-1980.9880947981	0
bin	-1620.5600500428	0
bin	-1260.1320052875	0
bin	-899.70396053223	0
bin	-539.27591577692	0
bin	-178.84787102161	137690
bin	181.58017373369	15705
bin	542.008218489	6368
bin	902.4362632443	3280
bin	1262.8643079996	2230
bin	1623.2923527549	1620
bin	1983.7203975102	1322
bin	2344.1484422655	1155
bin	2704.5764870208	920
bin	3065.0045317761	826
bin	3425.4325765314	685
bin	3785.8606212867	579
bin	4146.2886660421	529
bin	4506.7167107974	484
bin	4867.1447555527	485
bin	5227.572800308	346
bin	5588.0008450633	369
bin	5948.4288898186	354
bin	6308.8569345739	292
bin	6669.2849793292	249
bin	7029.7130240845	221
bin	7390.1410688398	206
bin	7750.5691135951	201
bin	8110.9971583504	5597
scalar scenarioPRJP1.node[41].lo0.lo 	droppedPkBitError:count 	0
attr interpolationmode  none
attr source  dropPkBitError
attr title  "packets dropped/bit error, count"
scalar scenarioPRJP1.node[41].lo0.lo 	droppedPkBitError:sum(packetBytes) 	0
attr interpolationmode  none
attr source  dropPkBitError
attr title  "packets dropped/bit error, sum(packetBytes)"
scalar scenarioPRJP1.node[41].lo0.lo 	rcvdPkFromHL:count 	0
attr interpolationmode  none
attr source  packetReceivedFromUpper
attr title  "packets received from higher layer, count"
scalar scenarioPRJP1.node[41].lo0.lo 	rcvdPkFromHL:sum(packetBytes) 	0
attr interpolationmode  none
attr source  packetReceivedFromUpper
attr title  "packets received from higher layer, sum(packetBytes)"
scalar scenarioPRJP1.node[41].lo0.lo 	passedUpPk:count 	0
attr interpolationmode  none
attr source  packetSentToUpper
attr title  "packets passed to higher layer, count"
scalar scenarioPRJP1.node[41].lo0.lo 	passedUpPk:sum(packetBytes) 	0
attr interpolationmode  none
attr source  packetSentToUpper
attr title  "packets passed to higher layer, sum(packetBytes)"
scalar scenarioPRJP1.node[61].app 	"Total sent" 	2628
scalar scenarioPRJP1.node[61].app 	"Total received" 	371
scalar scenarioPRJP1.node[61].app 	"Total deleted" 	64
scalar scenarioPRJP1.node[61].app 	dropPk:count 	64
attr interpolationmode  none
attr source  dropPk
attr title  "packets dropped, count"
scalar scenarioPRJP1.node[61].app 	dropPk:sum(packetBytes) 	32768
attr interpolationmode  none
attr source  dropPk
attr title  "packets dropped, sum(packetBytes)"
scalar scenarioPRJP1.node[61].app 	outOfOrderPk:count 	0
attr interpolationmode  none
attr source  outOfOrderPk
attr title  "packets received out of order, count"
scalar scenarioPRJP1.node[61].app 	outOfOrderPk:sum(packetBytes) 	0
attr interpolationmode  none
attr source  outOfOrderPk
attr title  "packets received out of order, sum(packetBytes)"
scalar scenarioPRJP1.node[61].app 	rcvdPk:count 	371
attr interpolationmode  none
attr source  rcvdPk
attr title  "packets received, count"
scalar scenarioPRJP1.node[61].app 	rcvdPk:sum(packetBytes) 	189952
attr interpolationmode  none
attr source  rcvdPk
attr title  "packets received, sum(packetBytes)"
statistic scenarioPRJP1.node[61].app 	endToEndDelay:histogram
field count 371
field mean 5.2859663527308
field stddev 6.0811372832022
field sum 1961.0935168631
field sqrsum 24048.959687843
field min 0.000945011007
field max 19.988212688563
attr interpolationmode  none
attr source  messageAge(rcvdPk)
attr title  "delay, histogram"
attr unit  s
bin	-INF	0
bin	-9.9817855600375	0
bin	-8.6507547844301	0
bin	-7.3197240088227	0
bin	-5.9886932332153	0
bin	-4.6576624576079	0
bin	-3.3266316820005	0
bin	-1.9956009063931	0
bin	-0.6645701307857	143
bin	0.6664606448217	32
bin	1.9974914204291	23
bin	3.3285221960365	18
bin	4.6595529716439	22
bin	5.9905837472513	16
bin	7.3216145228587	13
bin	8.6526452984661	14
bin	9.9836760740735	14
bin	11.314706849681	12
bin	12.645737625288	17
bin	13.976768400896	11
bin	15.307799176503	9
bin	16.63882995211	9
bin	17.969860727718	12
bin	19.300891503325	6
bin	20.631922278933	0
bin	21.96295305454	0
bin	23.293983830147	0
bin	24.625014605755	0
bin	25.956045381362	0
bin	27.28707615697	0
bin	28.618106932577	0
bin	29.949137708185	0
scalar scenarioPRJP1.node[61].app 	sentPk:count 	2628
attr interpolationmode  none
attr source  sentPk
attr title  "packets sent, count"
scalar scenarioPRJP1.node[61].app 	sentPk:sum(packetBytes) 	1345536
attr interpolationmode  none
attr source  sentPk
attr title  "packets sent, sum(packetBytes)"
scalar scenarioPRJP1.node[61].udp 	droppedPkBadChecksum:count 	0
attr interpolationmode  none
attr title  "packets dropped (checksum error), count"
scalar scenarioPRJP1.node[61].udp 	droppedPkWrongPort:count 	0
attr interpolationmode  none
attr title  "packets dropped (wrong port), count"
scalar scenarioPRJP1.node[61].udp 	passedUpPk:count 	435
attr interpolationmode  none
attr title  "packets passed up, count"
scalar scenarioPRJP1.node[61].udp 	rcvdPk:count 	435
attr interpolationmode  none
attr source  rcvdPk
attr title  "packets received, count"
scalar scenarioPRJP1.node[61].udp 	rcvdPk:sum(packetBytes) 	226200
attr interpolationmode  none
attr source  rcvdPk
attr title  "packets received, sum(packetBytes)"
scalar scenarioPRJP1.node[61].udp 	sentPk:count 	2628
attr interpolationmode  none
attr source  sentPk
attr title  "packets sent, count"
scalar scenarioPRJP1.node[61].udp 	sentPk:sum(packetBytes) 	1366560
attr interpolationmode  none
attr source  sentPk
attr title  "packets sent, sum(packetBytes)"
scalar scenarioPRJP1.node[61].networkLayer.arp 	failedARPResolution:count 	15
attr title  "ARP failed resolutions, count"
scalar scenarioPRJP1.node[61].networkLayer.arp 	completedARPResolution:count 	660
attr title  "ARP completed resolutions, count"
scalar scenarioPRJP1.node[61].networkLayer.arp 	initiatedARPResolution:count 	93
attr title  "ARP initiated resolutions, count"
scalar scenarioPRJP1.node[61].networkLayer.arp 	sentReply:count 	59
attr title  "ARP replies sent, count"
scalar scenarioPRJP1.node[61].networkLayer.arp 	sentReq:count 	164
attr title  "ARP request sent, count"
scalar scenarioPRJP1.node[61].mobility 	startTime 	7.3
scalar scenarioPRJP1.node[61].mobility 	totalTime 	942.7
scalar scenarioPRJP1.node[61].mobility 	stopTime 	950
scalar scenarioPRJP1.node[61].mobility 	minSpeed 	2.4758963874053e-13
scalar scenarioPRJP1.node[61].mobility 	maxSpeed 	15.190787506376
scalar scenarioPRJP1.node[61].mobility 	totalDistance 	9311.5033346879
scalar scenarioPRJP1.node[61].mobility 	totalCO2Emission 	2264.0698867335
scalar scenarioPRJP1.node[61].wlan.mgmt 	dataQueueLen:max 	21
attr interpolationmode  sample-hold
attr title  "data queue length, max"
scalar scenarioPRJP1.node[61].wlan.mgmt 	dataQueueLen:timeavg 	0
attr interpolationmode  sample-hold
attr title  "data queue length, timeavg"
scalar scenarioPRJP1.node[61].wlan.mgmt 	dropPkByQueue:count 	0
attr interpolationmode  none
attr source  dropPkByQueue
attr title  "packets dropped by queue, count"
scalar scenarioPRJP1.node[61].wlan.mgmt 	dropPkByQueue:sum(packetBytes) 	0
attr interpolationmode  none
attr source  dropPkByQueue
attr title  "packets dropped by queue, sum(packetBytes)"
scalar scenarioPRJP1.node[61].wlan.mac 	"number of received packets" 	5077
scalar scenarioPRJP1.node[61].wlan.mac 	"number of collisions" 	56627
scalar scenarioPRJP1.node[61].wlan.mac 	"number of internal collisions" 	0
scalar scenarioPRJP1.node[61].wlan.mac 	"number of retry for AC 0" 	11407
scalar scenarioPRJP1.node[61].wlan.mac 	"number of retry for AC 1" 	0
scalar scenarioPRJP1.node[61].wlan.mac 	"number of retry for AC 2" 	0
scalar scenarioPRJP1.node[61].wlan.mac 	"number of retry for AC 3" 	0
scalar scenarioPRJP1.node[61].wlan.mac 	"sent and received bits" 	20932808
scalar scenarioPRJP1.node[61].wlan.mac 	"sent packet within AC 0" 	973
scalar scenarioPRJP1.node[61].wlan.mac 	"sent packet within AC 1" 	0
scalar scenarioPRJP1.node[61].wlan.mac 	"sent packet within AC 2" 	0
scalar scenarioPRJP1.node[61].wlan.mac 	"sent packet within AC 3" 	0
scalar scenarioPRJP1.node[61].wlan.mac 	"sent in TXOP " 	0
scalar scenarioPRJP1.node[61].wlan.mac 	"sentWithoutRetry AC 0" 	728
scalar scenarioPRJP1.node[61].wlan.mac 	"sentWithoutRetry AC 1" 	0
scalar scenarioPRJP1.node[61].wlan.mac 	"sentWithoutRetry AC 2" 	0
scalar scenarioPRJP1.node[61].wlan.mac 	"sentWithoutRetry AC 3" 	0
scalar scenarioPRJP1.node[61].wlan.mac 	"numGivenUp AC 0" 	1789
scalar scenarioPRJP1.node[61].wlan.mac 	"numGivenUp AC 1" 	0
scalar scenarioPRJP1.node[61].wlan.mac 	"numGivenUp AC 2" 	0
scalar scenarioPRJP1.node[61].wlan.mac 	"numGivenUp AC 3" 	0
scalar scenarioPRJP1.node[61].wlan.mac 	"numDropped AC 0" 	0
scalar scenarioPRJP1.node[61].wlan.mac 	"numDropped AC 1" 	0
scalar scenarioPRJP1.node[61].wlan.mac 	"numDropped AC 2" 	0
scalar scenarioPRJP1.node[61].wlan.mac 	"numDropped AC 3" 	0
scalar scenarioPRJP1.node[61].wlan.mac 	rcvdPkFromLL:count 	181369
attr interpolationmode  none
attr source  packetReceivedFromLower
attr title  "packets received from lower layer, count"
scalar scenarioPRJP1.node[61].wlan.mac 	rcvdPkFromLL:sum(packetBytes) 	56916552
attr interpolationmode  none
attr source  packetReceivedFromLower
attr title  "packets received from lower layer, sum(packetBytes)"
scalar scenarioPRJP1.node[61].wlan.mac 	sentDownPk:count 	33644
attr interpolationmode  none
attr source  packetSentToLower
attr title  "packets sent to lower layer, count"
scalar scenarioPRJP1.node[61].wlan.mac 	sentDownPk:sum(packetBytes) 	10078357
attr interpolationmode  none
attr source  packetSentToLower
attr title  "packets sent to lower layer, sum(packetBytes)"
scalar scenarioPRJP1.node[61].wlan.mac 	rcvdPkFromHL:count 	17160
attr interpolationmode  none
attr source  packetReceivedFromUpper
attr title  "packets received from higher layer, count"
scalar scenarioPRJP1.node[61].wlan.mac 	rcvdPkFromHL:sum(packetBytes) 	3617735
attr interpolationmode  none
attr source  packetReceivedFromUpper
attr title  "packets received from higher layer, sum(packetBytes)"
scalar scenarioPRJP1.node[61].wlan.mac 	passedUpPk:count 	51993
attr interpolationmode  none
attr source  packetSentToUpper
attr title  "packets passed to higher layer, count"
scalar scenarioPRJP1.node[61].wlan.mac 	passedUpPk:sum(packetBytes) 	8310835
attr interpolationmode  none
attr source  packetSentToUpper
attr title  "packets passed to higher layer, sum(packetBytes)"
statistic scenarioPRJP1.node[61].wlan.radio 	radioChannel:histogram
field count 1
field mean 3
field stddev nan
field sum 3
field sqrsum 9
field min 3
field max 3
attr interpolationmode  sample-hold
attr source  radioChannelChanged
attr title  "Radio channel, histogram"
bin	-INF	0
bin	2	0
bin	3	1
bin	4	0
scalar scenarioPRJP1.node[61].wlan.radio 	transmissionState:count 	134576
attr interpolationmode  sample-hold
attr source  transmissionStateChanged
attr title  "Radio transmission state, count"
scalar scenarioPRJP1.node[61].wlan.radio 	receptionState:count 	451288
attr interpolationmode  sample-hold
attr source  receptionStateChanged
attr title  "Radio reception state, count"
scalar scenarioPRJP1.node[61].wlan.radio 	radioMode:count 	67290
attr interpolationmode  sample-hold
attr source  radioModeChanged
attr title  "Radio mode, count"
statistic scenarioPRJP1.node[61].wlan.radio 	symbolErrorRate:histogram
field count 0
field mean nan
field stddev nan
field sum 0
field sqrsum 0
field min nan
field max nan
attr source  symbolErrorRate
attr title  "Symbol error rate, histogram"
bin	-INF	0
bin	-0.5	0
bin	-0.46666666666667	0
bin	-0.43333333333333	0
bin	-0.4	0
bin	-0.36666666666667	0
bin	-0.33333333333333	0
bin	-0.3	0
bin	-0.26666666666667	0
bin	-0.23333333333333	0
bin	-0.2	0
bin	-0.16666666666667	0
bin	-0.13333333333333	0
bin	-0.1	0
bin	-0.066666666666667	0
bin	-0.033333333333333	0
bin	0	0
bin	0.033333333333333	0
bin	0.066666666666667	0
bin	0.1	0
bin	0.13333333333333	0
bin	0.16666666666667	0
bin	0.2	0
bin	0.23333333333333	0
bin	0.26666666666667	0
bin	0.3	0
bin	0.33333333333333	0
bin	0.36666666666667	0
bin	0.4	0
bin	0.43333333333333	0
bin	0.46666666666667	0
bin	0.5	0
statistic scenarioPRJP1.node[61].wlan.radio 	bitErrorRate:histogram
field count 0
field mean nan
field stddev nan
field sum 0
field sqrsum 0
field min nan
field max nan
attr source  bitErrorRate
attr title  "Bit error rate, histogram"
bin	-INF	0
bin	-0.5	0
bin	-0.46666666666667	0
bin	-0.43333333333333	0
bin	-0.4	0
bin	-0.36666666666667	0
bin	-0.33333333333333	0
bin	-0.3	0
bin	-0.26666666666667	0
bin	-0.23333333333333	0
bin	-0.2	0
bin	-0.16666666666667	0
bin	-0.13333333333333	0
bin	-0.1	0
bin	-0.066666666666667	0
bin	-0.033333333333333	0
bin	0	0
bin	0.033333333333333	0
bin	0.066666666666667	0
bin	0.1	0
bin	0.13333333333333	0
bin	0.16666666666667	0
bin	0.2	0
bin	0.23333333333333	0
bin	0.26666666666667	0
bin	0.3	0
bin	0.33333333333333	0
bin	0.36666666666667	0
bin	0.4	0
bin	0.43333333333333	0
bin	0.46666666666667	0
bin	0.5	0
statistic scenarioPRJP1.node[61].wlan.radio 	packetErrorRate:histogram
field count 181369
field mean 0.28469311368648
field stddev 0.44002829133422
field sum 51634.505336203
field sqrsum 49817.348448571
field min 0
field max 1
attr source  packetErrorRate
attr title  "Packet error rate, histogram"
bin	-INF	0
bin	-0.5	0
bin	-0.43333333333333	0
bin	-0.36666666666667	0
bin	-0.3	0
bin	-0.23333333333333	0
bin	-0.16666666666667	0
bin	-0.1	0
bin	-0.033333333333333	122346
bin	0.033333333333333	3047
bin	0.1	1416
bin	0.16666666666667	915
bin	0.23333333333333	778
bin	0.3	650
bin	0.36666666666667	568
bin	0.43333333333333	533
bin	0.5	537
bin	0.56666666666667	484
bin	0.63333333333333	490
bin	0.7	515
bin	0.76666666666667	512
bin	0.83333333333333	658
bin	0.9	989
bin	0.96666666666667	46931
bin	1.0333333333333	0
bin	1.1	0
bin	1.1666666666667	0
bin	1.2333333333333	0
bin	1.3	0
bin	1.3666666666667	0
bin	1.4333333333333	0
bin	1.5	0
statistic scenarioPRJP1.node[61].wlan.radio 	minSNIR:histogram
field count 181369
field mean 1401.8250980829
field stddev 24258.416495032
field sum 254247616.2142
field sqrsum 1.0708617745642e+14
field min 0.00016849448510604
field max 973188.77795204
attr source  minSNIR
attr title  "Min SNIR, histogram"
bin	-INF	0
bin	-8235.9803078044	0
bin	-7137.7140603218	0
bin	-6039.4478128393	0
bin	-4941.1815653568	0
bin	-3842.9153178743	0
bin	-2744.6490703918	0
bin	-1646.3828229093	0
bin	-548.11657542676	166264
bin	550.14967205576	7031
bin	1648.4159195383	1850
bin	2746.6821670208	1130
bin	3844.9484145033	910
bin	4943.2146619858	555
bin	6041.4809094683	441
bin	7139.7471569508	327
bin	8238.0134044334	251
bin	9336.2796519159	234
bin	10434.545899398	199
bin	11532.812146881	165
bin	12631.078394363	204
bin	13729.344641846	122
bin	14827.610889328	87
bin	15925.877136811	75
bin	17024.143384293	55
bin	18122.409631776	68
bin	19220.675879259	56
bin	20318.942126741	52
bin	21417.208374224	99
bin	22515.474621706	43
bin	23613.740869189	73
bin	24712.007116671	1078
scalar scenarioPRJP1.node[61].lo0.lo 	droppedPkBitError:count 	0
attr interpolationmode  none
attr source  dropPkBitError
attr title  "packets dropped/bit error, count"
scalar scenarioPRJP1.node[61].lo0.lo 	droppedPkBitError:sum(packetBytes) 	0
attr interpolationmode  none
attr source  dropPkBitError
attr title  "packets dropped/bit error, sum(packetBytes)"
scalar scenarioPRJP1.node[61].lo0.lo 	rcvdPkFromHL:count 	0
attr interpolationmode  none
attr source  packetReceivedFromUpper
attr title  "packets received from higher layer, count"
scalar scenarioPRJP1.node[61].lo0.lo 	rcvdPkFromHL:sum(packetBytes) 	0
attr interpolationmode  none
attr source  packetReceivedFromUpper
attr title  "packets received from higher layer, sum(packetBytes)"
scalar scenarioPRJP1.node[61].lo0.lo 	passedUpPk:count 	0
attr interpolationmode  none
attr source  packetSentToUpper
attr title  "packets passed to higher layer, count"
scalar scenarioPRJP1.node[61].lo0.lo 	passedUpPk:sum(packetBytes) 	0
attr interpolationmode  none
attr source  packetSentToUpper
attr title  "packets passed to higher layer, sum(packetBytes)"
scalar scenarioPRJP1.node[81].app 	"Total sent" 	2613
scalar scenarioPRJP1.node[81].app 	"Total received" 	404
scalar scenarioPRJP1.node[81].app 	"Total deleted" 	54
scalar scenarioPRJP1.node[81].app 	dropPk:count 	54
attr interpolationmode  none
attr source  dropPk
attr title  "packets dropped, count"
scalar scenarioPRJP1.node[81].app 	dropPk:sum(packetBytes) 	27648
attr interpolationmode  none
attr source  dropPk
attr title  "packets dropped, sum(packetBytes)"
scalar scenarioPRJP1.node[81].app 	outOfOrderPk:count 	0
attr interpolationmode  none
attr source  outOfOrderPk
attr title  "packets received out of order, count"
scalar scenarioPRJP1.node[81].app 	outOfOrderPk:sum(packetBytes) 	0
attr interpolationmode  none
attr source  outOfOrderPk
attr title  "packets received out of order, sum(packetBytes)"
scalar scenarioPRJP1.node[81].app 	rcvdPk:count 	404
attr interpolationmode  none
attr source  rcvdPk
attr title  "packets received, count"
scalar scenarioPRJP1.node[81].app 	rcvdPk:sum(packetBytes) 	206848
attr interpolationmode  none
attr source  rcvdPk
attr title  "packets received, sum(packetBytes)"
statistic scenarioPRJP1.node[81].app 	endToEndDelay:histogram
field count 404
field mean 4.536969735654
field stddev 5.6365112044532
field sum 1832.9357732042
field sqrsum 21119.388329269
field min 0.000945043564
field max 19.969152955621
attr interpolationmode  none
attr source  messageAge(rcvdPk)
attr title  "delay, histogram"
attr unit  s
bin	-INF	0
bin	-9.5514327968505	0
bin	-8.2777824181286	0
bin	-7.0041320394066	0
bin	-5.7304816606847	0
bin	-4.4568312819628	0
bin	-3.1831809032408	0
bin	-1.9095305245189	0
bin	-0.63588014579697	173
bin	0.63777023292496	33
bin	1.9114206116469	26
bin	3.1850709903688	16
bin	4.4587213690908	25
bin	5.7323717478127	18
bin	7.0060221265346	22
bin	8.2796725052566	10
bin	9.5533228839785	16
bin	10.8269732627	11
bin	12.100623641422	8
bin	13.374274020144	7
bin	14.647924398866	12
bin	15.921574777588	9
bin	17.19522515631	7
bin	18.468875535032	10
bin	19.742525913754	1
bin	21.016176292476	0
bin	22.289826671198	0
bin	23.56347704992	0
bin	24.837127428642	0
bin	26.110777807364	0
bin	27.384428186086	0
bin	28.658078564808	0
scalar scenarioPRJP1.node[81].app 	sentPk:count 	2613
attr interpolationmode  none
attr source  sentPk
attr title  "packets sent, count"
scalar scenarioPRJP1.node[81].app 	sentPk:sum(packetBytes) 	1337856
attr interpolationmode  none
attr source  sentPk
attr title  "packets sent, sum(packetBytes)"
scalar scenarioPRJP1.node[81].udp 	droppedPkBadChecksum:count 	0
attr interpolationmode  none
attr title  "packets dropped (checksum error), count"
scalar scenarioPRJP1.node[81].udp 	droppedPkWrongPort:count 	0
attr interpolationmode  none
attr title  "packets dropped (wrong port), count"
scalar scenarioPRJP1.node[81].udp 	passedUpPk:count 	458
attr interpolationmode  none
attr title  "packets passed up, count"
scalar scenarioPRJP1.node[81].udp 	rcvdPk:count 	458
attr interpolationmode  none
attr source  rcvdPk
attr title  "packets received, count"
scalar scenarioPRJP1.node[81].udp 	rcvdPk:sum(packetBytes) 	238160
attr interpolationmode  none
attr source  rcvdPk
attr title  "packets received, sum(packetBytes)"
scalar scenarioPRJP1.node[81].udp 	sentPk:count 	2613
attr interpolationmode  none
attr source  sentPk
attr title  "packets sent, count"
scalar scenarioPRJP1.node[81].udp 	sentPk:sum(packetBytes) 	1358760
attr interpolationmode  none
attr source  sentPk
attr title  "packets sent, sum(packetBytes)"
scalar scenarioPRJP1.node[81].networkLayer.arp 	failedARPResolution:count 	15
attr title  "ARP failed resolutions, count"
scalar scenarioPRJP1.node[81].networkLayer.arp 	completedARPResolution:count 	885
attr title  "ARP completed resolutions, count"
scalar scenarioPRJP1.node[81].networkLayer.arp 	initiatedARPResolution:count 	107
attr title  "ARP initiated resolutions, count"
scalar scenarioPRJP1.node[81].networkLayer.arp 	sentReply:count 	64
attr title  "ARP replies sent, count"
scalar scenarioPRJP1.node[81].networkLayer.arp 	sentReq:count 	189
attr title  "ARP request sent, count"
scalar scenarioPRJP1.node[81].mobility 	startTime 	9.7
scalar scenarioPRJP1.node[81].mobility 	totalTime 	940.3
scalar scenarioPRJP1.node[81].mobility 	stopTime 	950
scalar scenarioPRJP1.node[81].mobility 	minSpeed 	2.4757872324993e-13
scalar scenarioPRJP1.node[81].mobility 	maxSpeed 	17.647933364747
scalar scenarioPRJP1.node[81].mobility 	totalDistance 	8484.5272255628
scalar scenarioPRJP1.node[81].mobility 	totalCO2Emission 	2389.1801574048
scalar scenarioPRJP1.node[81].wlan.mgmt 	dataQueueLen:max 	34
attr interpolationmode  sample-hold
attr title  "data queue length, max"
scalar scenarioPRJP1.node[81].wlan.mgmt 	dataQueueLen:timeavg 	0
attr interpolationmode  sample-hold
attr title  "data queue length, timeavg"
scalar scenarioPRJP1.node[81].wlan.mgmt 	dropPkByQueue:count 	0
attr interpolationmode  none
attr source  dropPkByQueue
attr title  "packets dropped by queue, count"
scalar scenarioPRJP1.node[81].wlan.mgmt 	dropPkByQueue:sum(packetBytes) 	0
attr interpolationmode  none
attr source  dropPkByQueue
attr title  "packets dropped by queue, sum(packetBytes)"
scalar scenarioPRJP1.node[81].wlan.mac 	"number of received packets" 	4273
scalar scenarioPRJP1.node[81].wlan.mac 	"number of collisions" 	72017
scalar scenarioPRJP1.node[81].wlan.mac 	"number of internal collisions" 	0
scalar scenarioPRJP1.node[81].wlan.mac 	"number of retry for AC 0" 	11308
scalar scenarioPRJP1.node[81].wlan.mac 	"number of retry for AC 1" 	0
scalar scenarioPRJP1.node[81].wlan.mac 	"number of retry for AC 2" 	0
scalar scenarioPRJP1.node[81].wlan.mac 	"number of retry for AC 3" 	0
scalar scenarioPRJP1.node[81].wlan.mac 	"sent and received bits" 	22410848
scalar scenarioPRJP1.node[81].wlan.mac 	"sent packet within AC 0" 	1152
scalar scenarioPRJP1.node[81].wlan.mac 	"sent packet within AC 1" 	1
scalar scenarioPRJP1.node[81].wlan.mac 	"sent packet within AC 2" 	0
scalar scenarioPRJP1.node[81].wlan.mac 	"sent packet within AC 3" 	0
scalar scenarioPRJP1.node[81].wlan.mac 	"sent in TXOP " 	0
scalar scenarioPRJP1.node[81].wlan.mac 	"sentWithoutRetry AC 0" 	883
scalar scenarioPRJP1.node[81].wlan.mac 	"sentWithoutRetry AC 1" 	1
scalar scenarioPRJP1.node[81].wlan.mac 	"sentWithoutRetry AC 2" 	0
scalar scenarioPRJP1.node[81].wlan.mac 	"sentWithoutRetry AC 3" 	0
scalar scenarioPRJP1.node[81].wlan.mac 	"numGivenUp AC 0" 	1765
scalar scenarioPRJP1.node[81].wlan.mac 	"numGivenUp AC 1" 	0
scalar scenarioPRJP1.node[81].wlan.mac 	"numGivenUp AC 2" 	0
scalar scenarioPRJP1.node[81].wlan.mac 	"numGivenUp AC 3" 	0
scalar scenarioPRJP1.node[81].wlan.mac 	"numDropped AC 0" 	0
scalar scenarioPRJP1.node[81].wlan.mac 	"numDropped AC 1" 	0
scalar scenarioPRJP1.node[81].wlan.mac 	"numDropped AC 2" 	0
scalar scenarioPRJP1.node[81].wlan.mac 	"numDropped AC 3" 	0
scalar scenarioPRJP1.node[81].wlan.mac 	rcvdPkFromLL:count 	236971
attr interpolationmode  none
attr source  packetReceivedFromLower
attr title  "packets received from lower layer, count"
scalar scenarioPRJP1.node[81].wlan.mac 	rcvdPkFromLL:sum(packetBytes) 	74625247
attr interpolationmode  none
attr source  packetReceivedFromLower
attr title  "packets received from lower layer, sum(packetBytes)"
scalar scenarioPRJP1.node[81].wlan.mac 	sentDownPk:count 	33799
attr interpolationmode  none
attr source  packetSentToLower
attr title  "packets sent to lower layer, count"
scalar scenarioPRJP1.node[81].wlan.mac 	sentDownPk:sum(packetBytes) 	10162059
attr interpolationmode  none
attr source  packetSentToLower
attr title  "packets sent to lower layer, sum(packetBytes)"
scalar scenarioPRJP1.node[81].wlan.mac 	rcvdPkFromHL:count 	18218
attr interpolationmode  none
attr source  packetReceivedFromUpper
attr title  "packets received from higher layer, count"
scalar scenarioPRJP1.node[81].wlan.mac 	rcvdPkFromHL:sum(packetBytes) 	3785617
attr interpolationmode  none
attr source  packetReceivedFromUpper
attr title  "packets received from higher layer, sum(packetBytes)"
scalar scenarioPRJP1.node[81].wlan.mac 	passedUpPk:count 	69120
attr interpolationmode  none
attr source  packetSentToUpper
attr title  "packets passed to higher layer, count"
scalar scenarioPRJP1.node[81].wlan.mac 	passedUpPk:sum(packetBytes) 	10526806
attr interpolationmode  none
attr source  packetSentToUpper
attr title  "packets passed to higher layer, sum(packetBytes)"
statistic scenarioPRJP1.node[81].wlan.radio 	radioChannel:histogram
field count 1
field mean 3
field stddev nan
field sum 3
field sqrsum 9
field min 3
field max 3
attr interpolationmode  sample-hold
attr source  radioChannelChanged
attr title  "Radio channel, histogram"
bin	-INF	0
bin	2	0
bin	3	1
bin	4	0
scalar scenarioPRJP1.node[81].wlan.radio 	transmissionState:count 	135196
attr interpolationmode  sample-hold
attr source  transmissionStateChanged
attr title  "Radio transmission state, count"
scalar scenarioPRJP1.node[81].wlan.radio 	receptionState:count 	572180
attr interpolationmode  sample-hold
attr source  receptionStateChanged
attr title  "Radio reception state, count"
scalar scenarioPRJP1.node[81].wlan.radio 	radioMode:count 	67600
attr interpolationmode  sample-hold
attr source  radioModeChanged
attr title  "Radio mode, count"
statistic scenarioPRJP1.node[81].wlan.radio 	symbolErrorRate:histogram
field count 0
field mean nan
field stddev nan
field sum 0
field sqrsum 0
field min nan
field max nan
attr source  symbolErrorRate
attr title  "Symbol error rate, histogram"
bin	-INF	0
bin	-0.5	0
bin	-0.46666666666667	0
bin	-0.43333333333333	0
bin	-0.4	0
bin	-0.36666666666667	0
bin	-0.33333333333333	0
bin	-0.3	0
bin	-0.26666666666667	0
bin	-0.23333333333333	0
bin	-0.2	0
bin	-0.16666666666667	0
bin	-0.13333333333333	0
bin	-0.1	0
bin	-0.066666666666667	0
bin	-0.033333333333333	0
bin	0	0
bin	0.033333333333333	0
bin	0.066666666666667	0
bin	0.1	0
bin	0.13333333333333	0
bin	0.16666666666667	0
bin	0.2	0
bin	0.23333333333333	0
bin	0.26666666666667	0
bin	0.3	0
bin	0.33333333333333	0
bin	0.36666666666667	0
bin	0.4	0
bin	0.43333333333333	0
bin	0.46666666666667	0
bin	0.5	0
statistic scenarioPRJP1.node[81].wlan.radio 	bitErrorRate:histogram
field count 0
field mean nan
field stddev nan
field sum 0
field sqrsum 0
field min nan
field max nan
attr source  bitErrorRate
attr title  "Bit error rate, histogram"
bin	-INF	0
bin	-0.5	0
bin	-0.46666666666667	0
bin	-0.43333333333333	0
bin	-0.4	0
bin	-0.36666666666667	0
bin	-0.33333333333333	0
bin	-0.3	0
bin	-0.26666666666667	0
bin	-0.23333333333333	0
bin	-0.2	0
bin	-0.16666666666667	0
bin	-0.13333333333333	0
bin	-0.1	0
bin	-0.066666666666667	0
bin	-0.033333333333333	0
bin	0	0
bin	0.033333333333333	0
bin	0.066666666666667	0
bin	0.1	0
bin	0.13333333333333	0
bin	0.16666666666667	0
bin	0.2	0
bin	0.23333333333333	0
bin	0.26666666666667	0
bin	0.3	0
bin	0.33333333333333	0
bin	0.36666666666667	0
bin	0.4	0
bin	0.43333333333333	0
bin	0.46666666666667	0
bin	0.5	0
statistic scenarioPRJP1.node[81].wlan.radio 	packetErrorRate:histogram
field count 236971
field mean 0.27915557560623
field stddev 0.43825742941899
field sum 66151.775906983
field sqrsum 63981.364135957
field min 0
field max 1
attr source  packetErrorRate
attr title  "Packet error rate, histogram"
bin	-INF	0
bin	-0.5	0
bin	-0.43333333333333	0
bin	-0.36666666666667	0
bin	-0.3	0
bin	-0.23333333333333	0
bin	-0.16666666666667	0
bin	-0.1	0
bin	-0.033333333333333	162008
bin	0.033333333333333	3488
bin	0.1	1714
bin	0.16666666666667	1243
bin	0.23333333333333	943
bin	0.3	809
bin	0.36666666666667	687
bin	0.43333333333333	620
bin	0.5	571
bin	0.56666666666667	588
bin	0.63333333333333	584
bin	0.7	547
bin	0.76666666666667	650
bin	0.83333333333333	752
bin	0.9	1204
bin	0.96666666666667	60563
bin	1.0333333333333	0
bin	1.1	0
bin	1.1666666666667	0
bin	1.2333333333333	0
bin	1.3	0
bin	1.3666666666667	0
bin	1.4333333333333	0
bin	1.5	0
statistic scenarioPRJP1.node[81].wlan.radio 	minSNIR:histogram
field count 236971
field mean 1940.4230067146
field stddev 25307.702594165
field sum 459823980.32417
field sqrsum 1.5266675374709e+14
field min 0.00021423572597493
field max 1077095.3079
attr source  minSNIR
attr title  "Min SNIR, histogram"
bin	-INF	0
bin	-321.66479926812	0
bin	-278.66001988085	0
bin	-235.65524049358	0
bin	-192.65046110631	0
bin	-149.64568171905	0
bin	-106.64090233178	0
bin	-63.636122944506	0
bin	-20.631343557237	149315
bin	22.373435830033	20286
bin	65.378215217302	9157
bin	108.38299460457	7998
bin	151.38777399184	6517
bin	194.39255337911	4690
bin	237.39733276638	3589
bin	280.40211215365	2937
bin	323.40689154092	1944
bin	366.41167092819	1763
bin	409.41645031546	1512
bin	452.42122970273	1332
bin	495.42600909	1073
bin	538.43078847727	964
bin	581.43556786454	938
bin	624.44034725181	852
bin	667.44512663908	784
bin	710.44990602634	648
bin	753.45468541361	641
bin	796.45946480088	492
bin	839.46424418815	453
bin	882.46902357542	476
bin	925.47380296269	391
bin	968.47858234996	18219
scalar scenarioPRJP1.node[81].lo0.lo 	droppedPkBitError:count 	0
attr interpolationmode  none
attr source  dropPkBitError
attr title  "packets dropped/bit error, count"
scalar scenarioPRJP1.node[81].lo0.lo 	droppedPkBitError:sum(packetBytes) 	0
attr interpolationmode  none
attr source  dropPkBitError
attr title  "packets dropped/bit error, sum(packetBytes)"
scalar scenarioPRJP1.node[81].lo0.lo 	rcvdPkFromHL:count 	0
attr interpolationmode  none
attr source  packetReceivedFromUpper
attr title  "packets received from higher layer, count"
scalar scenarioPRJP1.node[81].lo0.lo 	rcvdPkFromHL:sum(packetBytes) 	0
attr interpolationmode  none
attr source  packetReceivedFromUpper
attr title  "packets received from higher layer, sum(packetBytes)"
scalar scenarioPRJP1.node[81].lo0.lo 	passedUpPk:count 	0
attr interpolationmode  none
attr source  packetSentToUpper
attr title  "packets passed to higher layer, count"
scalar scenarioPRJP1.node[81].lo0.lo 	passedUpPk:sum(packetBytes) 	0
attr interpolationmode  none
attr source  packetSentToUpper
attr title  "packets passed to higher layer, sum(packetBytes)"
scalar scenarioPRJP1.node[1].app 	"Total sent" 	2605
scalar scenarioPRJP1.node[1].app 	"Total received" 	366
scalar scenarioPRJP1.node[1].app 	"Total deleted" 	43
scalar scenarioPRJP1.node[1].app 	dropPk:count 	43
attr interpolationmode  none
attr source  dropPk
attr title  "packets dropped, count"
scalar scenarioPRJP1.node[1].app 	dropPk:sum(packetBytes) 	22016
attr interpolationmode  none
attr source  dropPk
attr title  "packets dropped, sum(packetBytes)"
scalar scenarioPRJP1.node[1].app 	outOfOrderPk:count 	1
attr interpolationmode  none
attr source  outOfOrderPk
attr title  "packets received out of order, count"
scalar scenarioPRJP1.node[1].app 	outOfOrderPk:sum(packetBytes) 	512
attr interpolationmode  none
attr source  outOfOrderPk
attr title  "packets received out of order, sum(packetBytes)"
scalar scenarioPRJP1.node[1].app 	rcvdPk:count 	366
attr interpolationmode  none
attr source  rcvdPk
attr title  "packets received, count"
scalar scenarioPRJP1.node[1].app 	rcvdPk:sum(packetBytes) 	187392
attr interpolationmode  none
attr source  rcvdPk
attr title  "packets received, sum(packetBytes)"
statistic scenarioPRJP1.node[1].app 	endToEndDelay:histogram
field count 366
field mean 4.2127136757902
field stddev 5.4071873933895
field sum 1541.8532053392
field sqrsum 17167.137644332
field min 0.000945022685
field max 19.955381713743
attr interpolationmode  none
attr source  messageAge(rcvdPk)
attr title  "delay, histogram"
attr unit  s
bin	-INF	0
bin	-9.9762732838755	0
bin	-8.6459775062036	0
bin	-7.3156817285316	0
bin	-5.9853859508597	0
bin	-4.6550901731878	0
bin	-3.3247943955158	0
bin	-1.9944986178439	0
bin	-0.66420284017197	165
bin	0.66609293749997	30
bin	1.9963887151719	24
bin	3.3266844928438	18
bin	4.6569802705158	21
bin	5.9872760481877	17
bin	7.3175718258596	18
bin	8.6478676035316	16
bin	9.9781633812035	8
bin	11.308459158875	10
bin	12.638754936547	6
bin	13.969050714219	11
bin	15.299346491891	7
bin	16.629642269563	6
bin	17.959938047235	4
bin	19.290233824907	5
bin	20.620529602579	0
bin	21.950825380251	0
bin	23.281121157923	0
bin	24.611416935595	0
bin	25.941712713267	0
bin	27.272008490939	0
bin	28.602304268611	0
bin	29.932600046282	0
scalar scenarioPRJP1.node[1].app 	sentPk:count 	2605
attr interpolationmode  none
attr source  sentPk
attr title  "packets sent, count"
scalar scenarioPRJP1.node[1].app 	sentPk:sum(packetBytes) 	1333760
attr interpolationmode  none
attr source  sentPk
attr title  "packets sent, sum(packetBytes)"
scalar scenarioPRJP1.node[1].udp 	droppedPkBadChecksum:count 	0
attr interpolationmode  none
attr title  "packets dropped (checksum error), count"
scalar scenarioPRJP1.node[1].udp 	droppedPkWrongPort:count 	0
attr interpolationmode  none
attr title  "packets dropped (wrong port), count"
scalar scenarioPRJP1.node[1].udp 	passedUpPk:count 	410
attr interpolationmode  none
attr title  "packets passed up, count"
scalar scenarioPRJP1.node[1].udp 	rcvdPk:count 	410
attr interpolationmode  none
attr source  rcvdPk
attr title  "packets received, count"
scalar scenarioPRJP1.node[1].udp 	rcvdPk:sum(packetBytes) 	213200
attr interpolationmode  none
attr source  rcvdPk
attr title  "packets received, sum(packetBytes)"
scalar scenarioPRJP1.node[1].udp 	sentPk:count 	2605
attr interpolationmode  none
attr source  sentPk
attr title  "packets sent, count"
scalar scenarioPRJP1.node[1].udp 	sentPk:sum(packetBytes) 	1354600
attr interpolationmode  none
attr source  sentPk
attr title  "packets sent, sum(packetBytes)"
scalar scenarioPRJP1.node[1].networkLayer.arp 	failedARPResolution:count 	12
attr title  "ARP failed resolutions, count"
scalar scenarioPRJP1.node[1].networkLayer.arp 	completedARPResolution:count 	855
attr title  "ARP completed resolutions, count"
scalar scenarioPRJP1.node[1].networkLayer.arp 	initiatedARPResolution:count 	87
attr title  "ARP initiated resolutions, count"
scalar scenarioPRJP1.node[1].networkLayer.arp 	sentReply:count 	85
attr title  "ARP replies sent, count"
scalar scenarioPRJP1.node[1].networkLayer.arp 	sentReq:count 	143
attr title  "ARP request sent, count"
scalar scenarioPRJP1.node[1].mobility 	startTime 	0.1
scalar scenarioPRJP1.node[1].mobility 	totalTime 	949.9
scalar scenarioPRJP1.node[1].mobility 	stopTime 	950
scalar scenarioPRJP1.node[1].mobility 	minSpeed 	2.4757245200521e-13
scalar scenarioPRJP1.node[1].mobility 	maxSpeed 	17.423402131704
scalar scenarioPRJP1.node[1].mobility 	totalDistance 	9578.4787376652
scalar scenarioPRJP1.node[1].mobility 	totalCO2Emission 	2599.2164354816
scalar scenarioPRJP1.node[1].wlan.mgmt 	dataQueueLen:max 	14
attr interpolationmode  sample-hold
attr title  "data queue length, max"
scalar scenarioPRJP1.node[1].wlan.mgmt 	dataQueueLen:timeavg 	0
attr interpolationmode  sample-hold
attr title  "data queue length, timeavg"
scalar scenarioPRJP1.node[1].wlan.mgmt 	dropPkByQueue:count 	0
attr interpolationmode  none
attr source  dropPkByQueue
attr title  "packets dropped by queue, count"
scalar scenarioPRJP1.node[1].wlan.mgmt 	dropPkByQueue:sum(packetBytes) 	0
attr interpolationmode  none
attr source  dropPkByQueue
attr title  "packets dropped by queue, sum(packetBytes)"
scalar scenarioPRJP1.node[1].wlan.mac 	"number of received packets" 	4500
scalar scenarioPRJP1.node[1].wlan.mac 	"number of collisions" 	63532
scalar scenarioPRJP1.node[1].wlan.mac 	"number of internal collisions" 	0
scalar scenarioPRJP1.node[1].wlan.mac 	"number of retry for AC 0" 	12375
scalar scenarioPRJP1.node[1].wlan.mac 	"number of retry for AC 1" 	0
scalar scenarioPRJP1.node[1].wlan.mac 	"number of retry for AC 2" 	0
scalar scenarioPRJP1.node[1].wlan.mac 	"number of retry for AC 3" 	0
scalar scenarioPRJP1.node[1].wlan.mac 	"sent and received bits" 	21429360
scalar scenarioPRJP1.node[1].wlan.mac 	"sent packet within AC 0" 	993
scalar scenarioPRJP1.node[1].wlan.mac 	"sent packet within AC 1" 	0
scalar scenarioPRJP1.node[1].wlan.mac 	"sent packet within AC 2" 	0
scalar scenarioPRJP1.node[1].wlan.mac 	"sent packet within AC 3" 	0
scalar scenarioPRJP1.node[1].wlan.mac 	"sent in TXOP " 	0
scalar scenarioPRJP1.node[1].wlan.mac 	"sentWithoutRetry AC 0" 	783
scalar scenarioPRJP1.node[1].wlan.mac 	"sentWithoutRetry AC 1" 	0
scalar scenarioPRJP1.node[1].wlan.mac 	"sentWithoutRetry AC 2" 	0
scalar scenarioPRJP1.node[1].wlan.mac 	"sentWithoutRetry AC 3" 	0
scalar scenarioPRJP1.node[1].wlan.mac 	"numGivenUp AC 0" 	1977
scalar scenarioPRJP1.node[1].wlan.mac 	"numGivenUp AC 1" 	0
scalar scenarioPRJP1.node[1].wlan.mac 	"numGivenUp AC 2" 	0
scalar scenarioPRJP1.node[1].wlan.mac 	"numGivenUp AC 3" 	0
scalar scenarioPRJP1.node[1].wlan.mac 	"numDropped AC 0" 	0
scalar scenarioPRJP1.node[1].wlan.mac 	"numDropped AC 1" 	0
scalar scenarioPRJP1.node[1].wlan.mac 	"numDropped AC 2" 	0
scalar scenarioPRJP1.node[1].wlan.mac 	"numDropped AC 3" 	0
scalar scenarioPRJP1.node[1].wlan.mac 	rcvdPkFromLL:count 	217345
attr interpolationmode  none
attr source  packetReceivedFromLower
attr title  "packets received from lower layer, count"
scalar scenarioPRJP1.node[1].wlan.mac 	rcvdPkFromLL:sum(packetBytes) 	67287365
attr interpolationmode  none
attr source  packetReceivedFromLower
attr title  "packets received from lower layer, sum(packetBytes)"
scalar scenarioPRJP1.node[1].wlan.mac 	sentDownPk:count 	35143
attr interpolationmode  none
attr source  packetSentToLower
attr title  "packets sent to lower layer, count"
scalar scenarioPRJP1.node[1].wlan.mac 	sentDownPk:sum(packetBytes) 	10714009
attr interpolationmode  none
attr source  packetSentToLower
attr title  "packets sent to lower layer, sum(packetBytes)"
scalar scenarioPRJP1.node[1].wlan.mac 	rcvdPkFromHL:count 	18268
attr interpolationmode  none
attr source  packetReceivedFromUpper
attr title  "packets received from higher layer, count"
scalar scenarioPRJP1.node[1].wlan.mac 	rcvdPkFromHL:sum(packetBytes) 	3776018
attr interpolationmode  none
attr source  packetReceivedFromUpper
attr title  "packets received from higher layer, sum(packetBytes)"
scalar scenarioPRJP1.node[1].wlan.mac 	passedUpPk:count 	65788
attr interpolationmode  none
attr source  packetSentToUpper
attr title  "packets passed to higher layer, count"
scalar scenarioPRJP1.node[1].wlan.mac 	passedUpPk:sum(packetBytes) 	10125485
[...]
scalar scenarioPRJP1.node[74].wlan.mac 	passedUpPk:sum(packetBytes) 	8318840
attr interpolationmode  none
attr source  packetSentToUpper
attr title  "packets passed to higher layer, sum(packetBytes)"
statistic scenarioPRJP1.node[74].wlan.radio 	radioChannel:histogram
field count 1
field mean 3
field stddev nan
field sum 3
field sqrsum 9
field min 3
field max 3
attr interpolationmode  sample-hold
attr source  radioChannelChanged
attr title  "Radio channel, histogram"
bin	-INF	0
bin	2	0
bin	3	1
bin	4	0
scalar scenarioPRJP1.node[74].wlan.radio 	transmissionState:count 	121760
attr interpolationmode  sample-hold
attr source  transmissionStateChanged
attr title  "Radio transmission state, count"
scalar scenarioPRJP1.node[74].wlan.radio 	receptionState:count 	424021
attr interpolationmode  sample-hold
attr source  receptionStateChanged
attr title  "Radio reception state, count"
scalar scenarioPRJP1.node[74].wlan.radio 	radioMode:count 	60882
attr interpolationmode  sample-hold
attr source  radioModeChanged
attr title  "Radio mode, count"
statistic scenarioPRJP1.node[74].wlan.radio 	symbolErrorRate:histogram
field count 0
field mean nan
field stddev nan
field sum 0
field sqrsum 0
field min nan
field max nan
attr source  symbolErrorRate
attr title  "Symbol error rate, histogram"
bin	-INF	0
bin	-0.5	0
bin	-0.46666666666667	0
bin	-0.43333333333333	0
bin	-0.4	0
bin	-0.36666666666667	0
bin	-0.33333333333333	0
bin	-0.3	0
bin	-0.26666666666667	0
bin	-0.23333333333333	0
bin	-0.2	0
bin	-0.16666666666667	0
bin	-0.13333333333333	0
bin	-0.1	0
bin	-0.066666666666667	0
bin	-0.033333333333333	0
bin	0	0
bin	0.033333333333333	0
bin	0.066666666666667	0
bin	0.1	0
bin	0.13333333333333	0
bin	0.16666666666667	0
bin	0.2	0
bin	0.23333333333333	0
bin	0.26666666666667	0
bin	0.3	0
bin	0.33333333333333	0
bin	0.36666666666667	0
bin	0.4	0
bin	0.43333333333333	0
bin	0.46666666666667	0
bin	0.5	0
statistic scenarioPRJP1.node[74].wlan.radio 	bitErrorRate:histogram
field count 0
field mean nan
field stddev nan
field sum 0
field sqrsum 0
field min nan
field max nan
attr source  bitErrorRate
attr title  "Bit error rate, histogram"
bin	-INF	0
bin	-0.5	0
bin	-0.46666666666667	0
bin	-0.43333333333333	0
bin	-0.4	0
bin	-0.36666666666667	0
bin	-0.33333333333333	0
bin	-0.3	0
bin	-0.26666666666667	0
bin	-0.23333333333333	0
bin	-0.2	0
bin	-0.16666666666667	0
bin	-0.13333333333333	0
bin	-0.1	0
bin	-0.066666666666667	0
bin	-0.033333333333333	0
bin	0	0
bin	0.033333333333333	0
bin	0.066666666666667	0
bin	0.1	0
bin	0.13333333333333	0
bin	0.16666666666667	0
bin	0.2	0
bin	0.23333333333333	0
bin	0.26666666666667	0
bin	0.3	0
bin	0.33333333333333	0
bin	0.36666666666667	0
bin	0.4	0
bin	0.43333333333333	0
bin	0.46666666666667	0
bin	0.5	0
statistic scenarioPRJP1.node[74].wlan.radio 	packetErrorRate:histogram
field count 171707
field mean 0.25939783169908
field stddev 0.42750200619542
field sum 44540.423487554
field sqrsum 42934.328465623
field min 0
field max 1
attr source  packetErrorRate
attr title  "Packet error rate, histogram"
bin	-INF	0
bin	-0.013439010577587	0
bin	-0.011647142500576	0
bin	-0.009855274423564	0
bin	-0.0080634063465523	0
bin	-0.0062715382695407	0
bin	-0.0044796701925291	0
bin	-0.0026878021155174	0
bin	-0.00089593403850581	113043
bin	0.00089593403850582	2138
bin	0.0026878021155174	1049
bin	0.0044796701925291	679
bin	0.0062715382695407	567
bin	0.0080634063465523	421
bin	0.009855274423564	339
bin	0.011647142500576	307
bin	0.013439010577587	281
bin	0.015230878654599	245
bin	0.01702274673161	224
bin	0.018814614808622	186
bin	0.020606482885634	213
bin	0.022398350962645	200
bin	0.024190219039657	161
bin	0.025982087116669	154
bin	0.02777395519368	134
bin	0.029565823270692	135
bin	0.031357691347704	136
bin	0.033149559424715	125
bin	0.034941427501727	105
bin	0.036733295578738	118
bin	0.03852516365575	97
bin	0.040317031732762	50650
statistic scenarioPRJP1.node[74].wlan.radio 	minSNIR:histogram
field count 171707
field mean 2203.2964562075
field stddev 28881.526916735
field sum 378321424.60601
field sqrsum 1.4406084302185e+14
field min 0.00016812645147634
field max 753239.71923443
attr source  minSNIR
attr title  "Min SNIR, histogram"
bin	-INF	0
bin	-17950.411500921	0
bin	-15556.715362054	0
bin	-13163.019223187	0
bin	-10769.32308432	0
bin	-8375.6269454535	0
bin	-5981.9308065865	0
bin	-3588.2346677196	0
bin	-1194.5385288526	158615
bin	1199.1576100143	5710
bin	3592.8537488813	2222
bin	5986.5498877482	964
bin	8380.2460266152	638
bin	10773.942165482	544
bin	13167.638304349	296
bin	15561.334443216	199
bin	17955.030582083	214
bin	20348.72672095	249
bin	22742.422859817	185
bin	25136.118998684	170
bin	27529.815137551	131
bin	29923.511276418	116
bin	32317.207415285	66
bin	34710.903554152	63
bin	37104.599693019	40
bin	39498.295831886	37
bin	41891.991970752	30
bin	44285.688109619	36
bin	46679.384248486	47
bin	49073.080387353	44
bin	51466.77652622	39
bin	53860.472665087	1052
scalar scenarioPRJP1.node[74].lo0.lo 	droppedPkBitError:count 	0
attr interpolationmode  none
attr source  dropPkBitError
attr title  "packets dropped/bit error, count"
scalar scenarioPRJP1.node[74].lo0.lo 	droppedPkBitError:sum(packetBytes) 	0
attr interpolationmode  none
attr source  dropPkBitError
attr title  "packets dropped/bit error, sum(packetBytes)"
scalar scenarioPRJP1.node[74].lo0.lo 	rcvdPkFromHL:count 	0
attr interpolationmode  none
attr source  packetReceivedFromUpper
attr title  "packets received from higher layer, count"
scalar scenarioPRJP1.node[74].lo0.lo 	rcvdPkFromHL:sum(packetBytes) 	0
attr interpolationmode  none
attr source  packetReceivedFromUpper
attr title  "packets received from higher layer, sum(packetBytes)"
scalar scenarioPRJP1.node[74].lo0.lo 	passedUpPk:count 	0
attr interpolationmode  none
attr source  packetSentToUpper
attr title  "packets passed to higher layer, count"
scalar scenarioPRJP1.node[74].lo0.lo 	passedUpPk:sum(packetBytes) 	0
attr interpolationmode  none
attr source  packetSentToUpper
attr title  "packets passed to higher layer, sum(packetBytes)"
scalar scenarioPRJP1.node[93].app 	"Total sent" 	2618
scalar scenarioPRJP1.node[93].app 	"Total received" 	387
scalar scenarioPRJP1.node[93].app 	"Total deleted" 	60
scalar scenarioPRJP1.node[93].app 	dropPk:count 	60
attr interpolationmode  none
attr source  dropPk
attr title  "packets dropped, count"
scalar scenarioPRJP1.node[93].app 	dropPk:sum(packetBytes) 	30720
attr interpolationmode  none
attr source  dropPk
attr title  "packets dropped, sum(packetBytes)"
scalar scenarioPRJP1.node[93].app 	outOfOrderPk:count 	0
attr interpolationmode  none
attr source  outOfOrderPk
attr title  "packets received out of order, count"
scalar scenarioPRJP1.node[93].app 	outOfOrderPk:sum(packetBytes) 	0
attr interpolationmode  none
attr source  outOfOrderPk
attr title  "packets received out of order, sum(packetBytes)"
scalar scenarioPRJP1.node[93].app 	rcvdPk:count 	387
attr interpolationmode  none
attr source  rcvdPk
attr title  "packets received, count"
scalar scenarioPRJP1.node[93].app 	rcvdPk:sum(packetBytes) 	198144
attr interpolationmode  none
attr source  rcvdPk
attr title  "packets received, sum(packetBytes)"
statistic scenarioPRJP1.node[93].app 	endToEndDelay:histogram
field count 387
field mean 4.350226025719
field stddev 5.7757046021966
field sum 1683.5374719533
field sqrsum 20200.251295373
field min 0.00094507596
field max 19.924759144913
attr interpolationmode  none
attr source  messageAge(rcvdPk)
attr title  "delay, histogram"
attr unit  s
bin	-INF	0
bin	-9.909681087591	0
bin	-8.5882642641899	0
bin	-7.2668474407889	0
bin	-5.9454306173878	0
bin	-4.6240137939867	0
bin	-3.3025969705857	0
bin	-1.9811801471846	0
bin	-0.65976332378353	189
bin	0.66165349961753	24
bin	1.9830703230186	22
bin	3.3044871464197	15
bin	4.6259039698207	19
bin	5.9473207932218	19
bin	7.2687376166229	12
bin	8.5901544400239	9
bin	9.911571263425	13
bin	11.232988086826	16
bin	12.554404910227	7
bin	13.875821733628	8
bin	15.197238557029	11
bin	16.51865538043	12
bin	17.840072203831	4
bin	19.161489027232	7
bin	20.482905850634	0
bin	21.804322674035	0
bin	23.125739497436	0
bin	24.447156320837	0
bin	25.768573144238	0
bin	27.089989967639	0
bin	28.41140679104	0
bin	29.732823614441	0
scalar scenarioPRJP1.node[93].app 	sentPk:count 	2618
attr interpolationmode  none
attr source  sentPk
attr title  "packets sent, count"
scalar scenarioPRJP1.node[93].app 	sentPk:sum(packetBytes) 	1340416
attr interpolationmode  none
attr source  sentPk
attr title  "packets sent, sum(packetBytes)"
scalar scenarioPRJP1.node[93].udp 	droppedPkBadChecksum:count 	0
attr interpolationmode  none
attr title  "packets dropped (checksum error), count"
scalar scenarioPRJP1.node[93].udp 	droppedPkWrongPort:count 	0
attr interpolationmode  none
attr title  "packets dropped (wrong port), count"
scalar scenarioPRJP1.node[93].udp 	passedUpPk:count 	447
attr interpolationmode  none
attr title  "packets passed up, count"
scalar scenarioPRJP1.node[93].udp 	rcvdPk:count 	447
attr interpolationmode  none
attr source  rcvdPk
attr title  "packets received, count"
scalar scenarioPRJP1.node[93].udp 	rcvdPk:sum(packetBytes) 	232440
attr interpolationmode  none
attr source  rcvdPk
attr title  "packets received, sum(packetBytes)"
scalar scenarioPRJP1.node[93].udp 	sentPk:count 	2618
attr interpolationmode  none
attr source  sentPk
attr title  "packets sent, count"
scalar scenarioPRJP1.node[93].udp 	sentPk:sum(packetBytes) 	1361360
attr interpolationmode  none
attr source  sentPk
attr title  "packets sent, sum(packetBytes)"
scalar scenarioPRJP1.node[93].networkLayer.arp 	failedARPResolution:count 	8
attr title  "ARP failed resolutions, count"
scalar scenarioPRJP1.node[93].networkLayer.arp 	completedARPResolution:count 	793
attr title  "ARP completed resolutions, count"
scalar scenarioPRJP1.node[93].networkLayer.arp 	initiatedARPResolution:count 	102
attr title  "ARP initiated resolutions, count"
scalar scenarioPRJP1.node[93].networkLayer.arp 	sentReply:count 	66
attr title  "ARP replies sent, count"
scalar scenarioPRJP1.node[93].networkLayer.arp 	sentReq:count 	169
attr title  "ARP request sent, count"
scalar scenarioPRJP1.node[93].mobility 	startTime 	9.7
scalar scenarioPRJP1.node[93].mobility 	totalTime 	940.3
scalar scenarioPRJP1.node[93].mobility 	stopTime 	950
scalar scenarioPRJP1.node[93].mobility 	minSpeed 	2.4759203592889e-13
scalar scenarioPRJP1.node[93].mobility 	maxSpeed 	16.147939024228
scalar scenarioPRJP1.node[93].mobility 	totalDistance 	8780.3378737645
scalar scenarioPRJP1.node[93].mobility 	totalCO2Emission 	2244.0087147073
scalar scenarioPRJP1.node[93].wlan.mgmt 	dataQueueLen:max 	37
attr interpolationmode  sample-hold
attr title  "data queue length, max"
scalar scenarioPRJP1.node[93].wlan.mgmt 	dataQueueLen:timeavg 	0
attr interpolationmode  sample-hold
attr title  "data queue length, timeavg"
scalar scenarioPRJP1.node[93].wlan.mgmt 	dropPkByQueue:count 	0
attr interpolationmode  none
attr source  dropPkByQueue
attr title  "packets dropped by queue, count"
scalar scenarioPRJP1.node[93].wlan.mgmt 	dropPkByQueue:sum(packetBytes) 	0
attr interpolationmode  none
attr source  dropPkByQueue
attr title  "packets dropped by queue, sum(packetBytes)"
scalar scenarioPRJP1.node[93].wlan.mac 	"number of received packets" 	5361
scalar scenarioPRJP1.node[93].wlan.mac 	"number of collisions" 	66287
scalar scenarioPRJP1.node[93].wlan.mac 	"number of internal collisions" 	0
scalar scenarioPRJP1.node[93].wlan.mac 	"number of retry for AC 0" 	12896
scalar scenarioPRJP1.node[93].wlan.mac 	"number of retry for AC 1" 	6
scalar scenarioPRJP1.node[93].wlan.mac 	"number of retry for AC 2" 	0
scalar scenarioPRJP1.node[93].wlan.mac 	"number of retry for AC 3" 	0
scalar scenarioPRJP1.node[93].wlan.mac 	"sent and received bits" 	22383488
scalar scenarioPRJP1.node[93].wlan.mac 	"sent packet within AC 0" 	1208
scalar scenarioPRJP1.node[93].wlan.mac 	"sent packet within AC 1" 	0
scalar scenarioPRJP1.node[93].wlan.mac 	"sent packet within AC 2" 	0
scalar scenarioPRJP1.node[93].wlan.mac 	"sent packet within AC 3" 	0
scalar scenarioPRJP1.node[93].wlan.mac 	"sent in TXOP " 	0
scalar scenarioPRJP1.node[93].wlan.mac 	"sentWithoutRetry AC 0" 	921
scalar scenarioPRJP1.node[93].wlan.mac 	"sentWithoutRetry AC 1" 	0
scalar scenarioPRJP1.node[93].wlan.mac 	"sentWithoutRetry AC 2" 	0
scalar scenarioPRJP1.node[93].wlan.mac 	"sentWithoutRetry AC 3" 	0
scalar scenarioPRJP1.node[93].wlan.mac 	"numGivenUp AC 0" 	2016
scalar scenarioPRJP1.node[93].wlan.mac 	"numGivenUp AC 1" 	1
scalar scenarioPRJP1.node[93].wlan.mac 	"numGivenUp AC 2" 	0
scalar scenarioPRJP1.node[93].wlan.mac 	"numGivenUp AC 3" 	0
scalar scenarioPRJP1.node[93].wlan.mac 	"numDropped AC 0" 	0
scalar scenarioPRJP1.node[93].wlan.mac 	"numDropped AC 1" 	0
scalar scenarioPRJP1.node[93].wlan.mac 	"numDropped AC 2" 	0
scalar scenarioPRJP1.node[93].wlan.mac 	"numDropped AC 3" 	0
scalar scenarioPRJP1.node[93].wlan.mac 	rcvdPkFromLL:count 	209460
attr interpolationmode  none
attr source  packetReceivedFromLower
attr title  "packets received from lower layer, count"
scalar scenarioPRJP1.node[93].wlan.mac 	rcvdPkFromLL:sum(packetBytes) 	64773072
attr interpolationmode  none
attr source  packetReceivedFromLower
attr title  "packets received from lower layer, sum(packetBytes)"
scalar scenarioPRJP1.node[93].wlan.mac 	sentDownPk:count 	36300
attr interpolationmode  none
attr source  packetSentToLower
attr title  "packets sent to lower layer, count"
scalar scenarioPRJP1.node[93].wlan.mac 	sentDownPk:sum(packetBytes) 	11205313
attr interpolationmode  none
attr source  packetSentToLower
attr title  "packets sent to lower layer, sum(packetBytes)"
scalar scenarioPRJP1.node[93].wlan.mac 	rcvdPkFromHL:count 	18039
attr interpolationmode  none
attr source  packetReceivedFromUpper
attr title  "packets received from higher layer, count"
scalar scenarioPRJP1.node[93].wlan.mac 	rcvdPkFromHL:sum(packetBytes) 	3923468
attr interpolationmode  none
attr source  packetReceivedFromUpper
attr title  "packets received from higher layer, sum(packetBytes)"
scalar scenarioPRJP1.node[93].wlan.mac 	passedUpPk:count 	59886
attr interpolationmode  none
attr source  packetSentToUpper
attr title  "packets passed to higher layer, count"
scalar scenarioPRJP1.node[93].wlan.mac 	passedUpPk:sum(packetBytes) 	9706775
attr interpolationmode  none
attr source  packetSentToUpper
attr title  "packets passed to higher layer, sum(packetBytes)"
statistic scenarioPRJP1.node[93].wlan.radio 	radioChannel:histogram
field count 1
field mean 3
field stddev nan
field sum 3
field sqrsum 9
field min 3
field max 3
attr interpolationmode  sample-hold
attr source  radioChannelChanged
attr title  "Radio channel, histogram"
bin	-INF	0
bin	2	0
bin	3	1
bin	4	0
scalar scenarioPRJP1.node[93].wlan.radio 	transmissionState:count 	145200
attr interpolationmode  sample-hold
attr source  transmissionStateChanged
attr title  "Radio transmission state, count"
scalar scenarioPRJP1.node[93].wlan.radio 	receptionState:count 	518298
attr interpolationmode  sample-hold
attr source  receptionStateChanged
attr title  "Radio reception state, count"
scalar scenarioPRJP1.node[93].wlan.radio 	radioMode:count 	72602
attr interpolationmode  sample-hold
attr source  radioModeChanged
attr title  "Radio mode, count"
statistic scenarioPRJP1.node[93].wlan.radio 	symbolErrorRate:histogram
field count 0
field mean nan
field stddev nan
field sum 0
field sqrsum 0
field min nan
field max nan
attr source  symbolErrorRate
attr title  "Symbol error rate, histogram"
bin	-INF	0
bin	-0.5	0
bin	-0.46666666666667	0
bin	-0.43333333333333	0
bin	-0.4	0
bin	-0.36666666666667	0
bin	-0.33333333333333	0
bin	-0.3	0
bin	-0.26666666666667	0
bin	-0.23333333333333	0
bin	-0.2	0
bin	-0.16666666666667	0
bin	-0.13333333333333	0
bin	-0.1	0
bin	-0.066666666666667	0
bin	-0.033333333333333	0
bin	0	0
bin	0.033333333333333	0
bin	0.066666666666667	0
bin	0.1	0
bin	0.13333333333333	0
bin	0.16666666666667	0
bin	0.2	0
bin	0.23333333333333	0
bin	0.26666666666667	0
bin	0.3	0
bin	0.33333333333333	0
bin	0.36666666666667	0
bin	0.4	0
bin	0.43333333333333	0
bin	0.46666666666667	0
bin	0.5	0
statistic scenarioPRJP1.node[93].wlan.radio 	bitErrorRate:histogram
field count 0
field mean nan
field stddev nan
field sum 0
field sqrsum 0
field min nan
field max nan
attr source  bitErrorRate
attr title  "Bit error rate, histogram"
bin	-INF	0
bin	-0.5	0
bin	-0.46666666666667	0
bin	-0.43333333333333	0
bin	-0.4	0
bin	-0.36666666666667	0
bin	-0.33333333333333	0
bin	-0.3	0
bin	-0.26666666666667	0
bin	-0.23333333333333	0
bin	-0.2	0
bin	-0.16666666666667	0
bin	-0.13333333333333	0
bin	-0.1	0
bin	-0.066666666666667	0
bin	-0.033333333333333	0
bin	0	0
bin	0.033333333333333	0
bin	0.066666666666667	0
bin	0.1	0
bin	0.13333333333333	0
bin	0.16666666666667	0
bin	0.2	0
bin	0.23333333333333	0
bin	0.26666666666667	0
bin	0.3	0
bin	0.33333333333333	0
bin	0.36666666666667	0
bin	0.4	0
bin	0.43333333333333	0
bin	0.46666666666667	0
bin	0.5	0
statistic scenarioPRJP1.node[93].wlan.radio 	packetErrorRate:histogram
field count 209460
field mean 0.28907143795708
field stddev 0.44276703265404
field sum 60548.90339449
field sqrsum 58565.854993018
field min 0
field max 1
attr source  packetErrorRate
attr title  "Packet error rate, histogram"
bin	-INF	0
bin	-0.5	0
bin	-0.43333333333333	0
bin	-0.36666666666667	0
bin	-0.3	0
bin	-0.23333333333333	0
bin	-0.16666666666667	0
bin	-0.1	0
bin	-0.033333333333333	140932
bin	0.033333333333333	3153
bin	0.1	1581
bin	0.16666666666667	1072
bin	0.23333333333333	868
bin	0.3	690
bin	0.36666666666667	594
bin	0.43333333333333	560
bin	0.5	575
bin	0.56666666666667	551
bin	0.63333333333333	537
bin	0.7	559
bin	0.76666666666667	559
bin	0.83333333333333	760
bin	0.9	1096
bin	0.96666666666667	55373
bin	1.0333333333333	0
bin	1.1	0
bin	1.1666666666667	0
bin	1.2333333333333	0
bin	1.3	0
bin	1.3666666666667	0
bin	1.4333333333333	0
bin	1.5	0
statistic scenarioPRJP1.node[93].wlan.radio 	minSNIR:histogram
field count 209460
field mean 1704.6832114915
field stddev 27151.645951943
field sum 357062945.47901
field sqrsum 1.5502434194159e+14
field min 0.00016752525933159
field max 753239.71923443
attr source  minSNIR
attr title  "Min SNIR, histogram"
bin	-INF	0
bin	-17666.675384276	0
bin	-15310.988863788	0
bin	-12955.3023433	0
bin	-10599.615822812	0
bin	-8243.9293023242	0
bin	-5888.2427818363	0
bin	-3532.5562613484	0
bin	-1176.8697408606	198466
bin	1178.8167796273	4796
bin	3534.5033001151	1550
bin	5890.189820603	778
bin	8245.8763410908	511
bin	10601.562861579	562
bin	12957.249382067	485
bin	15312.935902554	180
bin	17668.622423042	253
bin	20024.30894353	167
bin	22379.995464018	211
bin	24735.681984506	135
bin	27091.368504994	84
bin	29447.055025482	30
bin	31802.741545969	48
bin	34158.428066457	24
bin	36514.114586945	37
bin	38869.801107433	38
bin	41225.487627921	17
bin	43581.174148409	29
bin	45936.860668897	39
bin	48292.547189384	152
bin	50648.233709872	32
bin	53003.92023036	836
scalar scenarioPRJP1.node[93].lo0.lo 	droppedPkBitError:count 	0
attr interpolationmode  none
attr source  dropPkBitError
attr title  "packets dropped/bit error, count"
scalar scenarioPRJP1.node[93].lo0.lo 	droppedPkBitError:sum(packetBytes) 	0
attr interpolationmode  none
attr source  dropPkBitError
attr title  "packets dropped/bit error, sum(packetBytes)"
scalar scenarioPRJP1.node[93].lo0.lo 	rcvdPkFromHL:count 	0
attr interpolationmode  none
attr source  packetReceivedFromUpper
attr title  "packets received from higher layer, count"
scalar scenarioPRJP1.node[93].lo0.lo 	rcvdPkFromHL:sum(packetBytes) 	0
attr interpolationmode  none
attr source  packetReceivedFromUpper
attr title  "packets received from higher layer, sum(packetBytes)"
scalar scenarioPRJP1.node[93].lo0.lo 	passedUpPk:count 	0
attr interpolationmode  none
attr source  packetSentToUpper
attr title  "packets passed to higher layer, count"
scalar scenarioPRJP1.node[93].lo0.lo 	passedUpPk:sum(packetBytes) 	0
attr interpolationmode  none
attr source  packetSentToUpper
attr title  "packets passed to higher layer, sum(packetBytes)"
