version 2
run DYMOUM-FS-100n-11-20150723-13:38:27-18907
attr configname DYMOUM-FS-100n
attr datetime 20150723-13:38:27
attr experiment DYMOUM-FS-100n
attr inifile omnetpp.ini
attr iterationvars ""
attr iterationvars2 $repetition=11
attr measurement ""
attr network Prj_Part1_propag.scenarioPRJP1
attr processid 18907
attr repetition 11
attr replication #11
attr resultdir results
attr runnumber 11
attr seedset 11

scalar scenarioPRJP1.node[59].app 	"Total sent" 	357
scalar scenarioPRJP1.node[59].app 	"Total received" 	42
scalar scenarioPRJP1.node[59].app 	"Total deleted" 	7
scalar scenarioPRJP1.node[59].app 	dropPk:count 	7
attr interpolationmode  none
attr source  dropPk
attr title  "packets dropped, count"
scalar scenarioPRJP1.node[59].app 	dropPk:sum(packetBytes) 	3584
attr interpolationmode  none
attr source  dropPk
attr title  "packets dropped, sum(packetBytes)"
scalar scenarioPRJP1.node[59].app 	outOfOrderPk:count 	0
attr interpolationmode  none
attr source  outOfOrderPk
attr title  "packets received out of order, count"
scalar scenarioPRJP1.node[59].app 	outOfOrderPk:sum(packetBytes) 	0
attr interpolationmode  none
attr source  outOfOrderPk
attr title  "packets received out of order, sum(packetBytes)"
scalar scenarioPRJP1.node[59].app 	rcvdPk:count 	42
attr interpolationmode  none
attr source  rcvdPk
attr title  "packets received, count"
scalar scenarioPRJP1.node[59].app 	rcvdPk:sum(packetBytes) 	21504
attr interpolationmode  none
attr source  rcvdPk
attr title  "packets received, sum(packetBytes)"
statistic scenarioPRJP1.node[59].app 	endToEndDelay:histogram
field count 42
field mean 4.4895313864345
field stddev 6.1837806271091
field sum 188.56031823025
field sqrsum 2414.3523235434
field min 0.000958133375
field max 18.325013745964
attr interpolationmode  none
attr source  messageAge(rcvdPk)
attr title  "delay, histogram"
attr unit  s
bin	-INF	0
bin	-9.1610696729195	0
bin	-7.9394659654136	0
bin	-6.7178622579076	0
bin	-5.4962585504017	0
bin	-4.2746548428958	0
bin	-3.0530511353898	0
bin	-1.8314474278839	0
bin	-0.60984372037796	22
bin	0.61175998712797	2
bin	1.8333636946339	3
bin	3.0549674021398	0
bin	4.2765711096458	0
bin	5.4981748171517	2
bin	6.7197785246576	1
bin	7.9413822321636	3
bin	9.1629859396695	2
bin	10.384589647175	0
bin	11.606193354681	1
bin	12.827797062187	0
bin	14.049400769693	1
bin	15.271004477199	0
bin	16.492608184705	3
bin	17.714211892211	2
bin	18.935815599717	0
bin	20.157419307223	0
bin	21.379023014729	0
bin	22.600626722235	0
bin	23.822230429741	0
bin	25.043834137247	0
bin	26.265437844753	0
bin	27.487041552258	0
scalar scenarioPRJP1.node[59].app 	sentPk:count 	357
attr interpolationmode  none
attr source  sentPk
attr title  "packets sent, count"
scalar scenarioPRJP1.node[59].app 	sentPk:sum(packetBytes) 	182784
attr interpolationmode  none
attr source  sentPk
attr title  "packets sent, sum(packetBytes)"
scalar scenarioPRJP1.node[59].udp 	droppedPkBadChecksum:count 	0
attr interpolationmode  none
attr title  "packets dropped (checksum error), count"
scalar scenarioPRJP1.node[59].udp 	droppedPkWrongPort:count 	0
attr interpolationmode  none
attr title  "packets dropped (wrong port), count"
scalar scenarioPRJP1.node[59].udp 	passedUpPk:count 	49
attr interpolationmode  none
attr title  "packets passed up, count"
scalar scenarioPRJP1.node[59].udp 	rcvdPk:count 	49
attr interpolationmode  none
attr source  rcvdPk
attr title  "packets received, count"
scalar scenarioPRJP1.node[59].udp 	rcvdPk:sum(packetBytes) 	25480
attr interpolationmode  none
attr source  rcvdPk
attr title  "packets received, sum(packetBytes)"
scalar scenarioPRJP1.node[59].udp 	sentPk:count 	357
attr interpolationmode  none
attr source  sentPk
attr title  "packets sent, count"
scalar scenarioPRJP1.node[59].udp 	sentPk:sum(packetBytes) 	185640
attr interpolationmode  none
attr source  sentPk
attr title  "packets sent, sum(packetBytes)"
scalar scenarioPRJP1.node[59].networkLayer.arp 	failedARPResolution:count 	2
attr title  "ARP failed resolutions, count"
scalar scenarioPRJP1.node[59].networkLayer.arp 	completedARPResolution:count 	100
attr title  "ARP completed resolutions, count"
scalar scenarioPRJP1.node[59].networkLayer.arp 	initiatedARPResolution:count 	13
attr title  "ARP initiated resolutions, count"
scalar scenarioPRJP1.node[59].networkLayer.arp 	sentReply:count 	9
attr title  "ARP replies sent, count"
scalar scenarioPRJP1.node[59].networkLayer.arp 	sentReq:count 	23
attr title  "ARP request sent, count"
scalar scenarioPRJP1.node[59].manetrouting 	"simulated time" 	157.5
scalar scenarioPRJP1.node[59].manetrouting 	"Dymo totalSend " 	500913
scalar scenarioPRJP1.node[59].manetrouting 	"Dymo Rreq send" 	281722
scalar scenarioPRJP1.node[59].manetrouting 	"Dymo Rreq rec" 	219048
scalar scenarioPRJP1.node[59].manetrouting 	"Dymo Rrep send" 	578
scalar scenarioPRJP1.node[59].manetrouting 	"Dymo Rrep rec" 	365
scalar scenarioPRJP1.node[59].manetrouting 	"Dymo Rerr send" 	1712
scalar scenarioPRJP1.node[59].manetrouting 	"Dymo Rerr rec" 	6740
scalar scenarioPRJP1.node[59].mobility 	startTime 	5
scalar scenarioPRJP1.node[59].mobility 	totalTime 	152.4
scalar scenarioPRJP1.node[59].mobility 	stopTime 	157.5
scalar scenarioPRJP1.node[59].mobility 	minSpeed 	2.4767547900244e-13
scalar scenarioPRJP1.node[59].mobility 	maxSpeed 	20.735121054953
scalar scenarioPRJP1.node[59].mobility 	totalDistance 	1448.7389182281
scalar scenarioPRJP1.node[59].mobility 	totalCO2Emission 	437.54414387862
scalar scenarioPRJP1.node[59].wlan.mgmt 	dataQueueLen:max 	5
attr interpolationmode  sample-hold
attr title  "data queue length, max"
scalar scenarioPRJP1.node[59].wlan.mgmt 	dataQueueLen:timeavg 	0
attr interpolationmode  sample-hold
attr title  "data queue length, timeavg"
scalar scenarioPRJP1.node[59].wlan.mgmt 	dropPkByQueue:count 	0
attr interpolationmode  none
attr source  dropPkByQueue
attr title  "packets dropped by queue, count"
scalar scenarioPRJP1.node[59].wlan.mgmt 	dropPkByQueue:sum(packetBytes) 	0
attr interpolationmode  none
attr source  dropPkByQueue
attr title  "packets dropped by queue, sum(packetBytes)"
scalar scenarioPRJP1.node[59].wlan.mac 	"number of received packets" 	454
scalar scenarioPRJP1.node[59].wlan.mac 	"number of collisions" 	5896
scalar scenarioPRJP1.node[59].wlan.mac 	"number of internal collisions" 	0
scalar scenarioPRJP1.node[59].wlan.mac 	"number of retry for AC 0" 	1037
scalar scenarioPRJP1.node[59].wlan.mac 	"number of retry for AC 1" 	0
scalar scenarioPRJP1.node[59].wlan.mac 	"number of retry for AC 2" 	0
scalar scenarioPRJP1.node[59].wlan.mac 	"number of retry for AC 3" 	0
scalar scenarioPRJP1.node[59].wlan.mac 	"sent and received bits" 	2512128
scalar scenarioPRJP1.node[59].wlan.mac 	"sent packet within AC 0" 	85
scalar scenarioPRJP1.node[59].wlan.mac 	"sent packet within AC 1" 	0
scalar scenarioPRJP1.node[59].wlan.mac 	"sent packet within AC 2" 	0
scalar scenarioPRJP1.node[59].wlan.mac 	"sent packet within AC 3" 	0
scalar scenarioPRJP1.node[59].wlan.mac 	"sent in TXOP " 	0
scalar scenarioPRJP1.node[59].wlan.mac 	"sentWithoutRetry AC 0" 	69
scalar scenarioPRJP1.node[59].wlan.mac 	"sentWithoutRetry AC 1" 	0
scalar scenarioPRJP1.node[59].wlan.mac 	"sentWithoutRetry AC 2" 	0
scalar scenarioPRJP1.node[59].wlan.mac 	"sentWithoutRetry AC 3" 	0
scalar scenarioPRJP1.node[59].wlan.mac 	"numGivenUp AC 0" 	165
scalar scenarioPRJP1.node[59].wlan.mac 	"numGivenUp AC 1" 	0
scalar scenarioPRJP1.node[59].wlan.mac 	"numGivenUp AC 2" 	0
scalar scenarioPRJP1.node[59].wlan.mac 	"numGivenUp AC 3" 	0
scalar scenarioPRJP1.node[59].wlan.mac 	"numDropped AC 0" 	0
scalar scenarioPRJP1.node[59].wlan.mac 	"numDropped AC 1" 	0
scalar scenarioPRJP1.node[59].wlan.mac 	"numDropped AC 2" 	0
scalar scenarioPRJP1.node[59].wlan.mac 	"numDropped AC 3" 	0
scalar scenarioPRJP1.node[59].wlan.mac 	rcvdPkFromLL:count 	21430
attr interpolationmode  none
attr source  packetReceivedFromLower
attr title  "packets received from lower layer, count"
scalar scenarioPRJP1.node[59].wlan.mac 	rcvdPkFromLL:sum(packetBytes) 	6167824
attr interpolationmode  none
attr source  packetReceivedFromLower
attr title  "packets received from lower layer, sum(packetBytes)"
scalar scenarioPRJP1.node[59].wlan.mac 	sentDownPk:count 	3790
attr interpolationmode  none
attr source  packetSentToLower
attr title  "packets sent to lower layer, count"
scalar scenarioPRJP1.node[59].wlan.mac 	sentDownPk:sum(packetBytes) 	991424
attr interpolationmode  none
attr source  packetSentToLower
attr title  "packets sent to lower layer, sum(packetBytes)"
scalar scenarioPRJP1.node[59].wlan.mac 	rcvdPkFromHL:count 	2299
attr interpolationmode  none
attr source  packetReceivedFromUpper
attr title  "packets received from higher layer, count"
scalar scenarioPRJP1.node[59].wlan.mac 	rcvdPkFromHL:sum(packetBytes) 	406083
attr interpolationmode  none
attr source  packetReceivedFromUpper
attr title  "packets received from higher layer, sum(packetBytes)"
scalar scenarioPRJP1.node[59].wlan.mac 	passedUpPk:count 	7647
attr interpolationmode  none
attr source  packetSentToUpper
attr title  "packets passed to higher layer, count"
scalar scenarioPRJP1.node[59].wlan.mac 	passedUpPk:sum(packetBytes) 	1088191
attr interpolationmode  none
attr source  packetSentToUpper
attr title  "packets passed to higher layer, sum(packetBytes)"
statistic scenarioPRJP1.node[59].wlan.radio 	radioChannel:histogram
field count 1
field mean 3
field stddev -nan
field sum 3
field sqrsum 9
field min 3
field max 3
attr interpolationmode  sample-hold
attr source  radioChannelChanged
attr title  "Radio channel, histogram"
bin	-INF	0
bin	2	0
bin	3	1
bin	4	0
scalar scenarioPRJP1.node[59].wlan.radio 	transmissionState:count 	15160
attr interpolationmode  sample-hold
attr source  transmissionStateChanged
attr title  "Radio transmission state, count"
scalar scenarioPRJP1.node[59].wlan.radio 	receptionState:count 	52114
attr interpolationmode  sample-hold
attr source  receptionStateChanged
attr title  "Radio reception state, count"
scalar scenarioPRJP1.node[59].wlan.radio 	radioMode:count 	7582
attr interpolationmode  sample-hold
attr source  radioModeChanged
attr title  "Radio mode, count"
statistic scenarioPRJP1.node[59].wlan.radio 	symbolErrorRate:histogram
field count 0
field mean -nan
field stddev -nan
field sum 0
field sqrsum 0
field min -nan
field max -nan
attr source  symbolErrorRate
attr title  "Symbol error rate, histogram"
bin	-INF	0
bin	-0.5	0
bin	-0.46666666666667	0
bin	-0.43333333333333	0
bin	-0.4	0
bin	-0.36666666666667	0
bin	-0.33333333333333	0
bin	-0.3	0
bin	-0.26666666666667	0
bin	-0.23333333333333	0
bin	-0.2	0
bin	-0.16666666666667	0
bin	-0.13333333333333	0
bin	-0.1	0
bin	-0.066666666666667	0
bin	-0.033333333333333	0
bin	0	0
bin	0.033333333333333	0
bin	0.066666666666667	0
bin	0.1	0
bin	0.13333333333333	0
bin	0.16666666666667	0
bin	0.2	0
bin	0.23333333333333	0
bin	0.26666666666667	0
bin	0.3	0
bin	0.33333333333333	0
bin	0.36666666666667	0
bin	0.4	0
bin	0.43333333333333	0
bin	0.46666666666667	0
bin	0.5	0
statistic scenarioPRJP1.node[59].wlan.radio 	bitErrorRate:histogram
field count 0
field mean -nan
field stddev -nan
field sum 0
field sqrsum 0
field min -nan
field max -nan
attr source  bitErrorRate
attr title  "Bit error rate, histogram"
bin	-INF	0
bin	-0.5	0
bin	-0.46666666666667	0
bin	-0.43333333333333	0
bin	-0.4	0
bin	-0.36666666666667	0
bin	-0.33333333333333	0
bin	-0.3	0
bin	-0.26666666666667	0
bin	-0.23333333333333	0
bin	-0.2	0
bin	-0.16666666666667	0
bin	-0.13333333333333	0
bin	-0.1	0
bin	-0.066666666666667	0
bin	-0.033333333333333	0
bin	0	0
bin	0.033333333333333	0
bin	0.066666666666667	0
bin	0.1	0
bin	0.13333333333333	0
bin	0.16666666666667	0
bin	0.2	0
bin	0.23333333333333	0
bin	0.26666666666667	0
bin	0.3	0
bin	0.33333333333333	0
bin	0.36666666666667	0
bin	0.4	0
bin	0.43333333333333	0
bin	0.46666666666667	0
bin	0.5	0
statistic scenarioPRJP1.node[59].wlan.radio 	packetErrorRate:histogram
field count 21430
field mean 0.24507288077086
field stddev 0.41811204530518
field sum 5251.9118349196
field sqrsum 5033.2692797155
field min 0
field max 1
attr source  packetErrorRate
attr title  "Packet error rate, histogram"
bin	-INF	0
bin	-0.26207774051936	0
bin	-0.22713404178345	0
bin	-0.19219034304753	0
bin	-0.15724664431162	0
bin	-0.1223029455757	0
bin	-0.087359246839788	0
bin	-0.052415548103873	0
bin	-0.017471849367958	15059
bin	0.017471849367958	323
bin	0.052415548103873	198
bin	0.087359246839788	148
bin	0.1223029455757	85
bin	0.15724664431162	79
bin	0.19219034304753	66
bin	0.22713404178345	41
bin	0.26207774051936	45
bin	0.29702143925528	37
bin	0.33196513799119	35
bin	0.36690883672711	35
bin	0.40185253546303	41
bin	0.43679623419894	28
bin	0.47173993293486	25
bin	0.50668363167077	30
bin	0.54162733040669	37
bin	0.5765710291426	25
bin	0.61151472787852	32
bin	0.64645842661443	36
bin	0.68140212535035	33
bin	0.71634582408626	33
bin	0.75128952282218	29
bin	0.78623322155809	4930
statistic scenarioPRJP1.node[59].wlan.radio 	minSNIR:histogram
field count 21430
field mean 1001.9235343168
field stddev 12435.101928968
field sum 21471221.340409
field sqrsum 3335116506664.9
field min 0.0007267792547926
field max 752364.52126084
attr source  minSNIR
attr title  "Min SNIR, histogram"
bin	-INF	0
bin	-79280.646700313	0
bin	-68709.65202361	0
bin	-58138.657346908	0
bin	-47567.662670206	0
bin	-36996.667993504	0
bin	-26425.673316802	0
bin	-15854.6786401	0
bin	-5283.6839633975	20985
bin	5287.3107133046	195
bin	15858.305390007	162
bin	26429.300066709	17
bin	37000.294743411	3
bin	47571.289420113	4
bin	58142.284096815	2
bin	68713.278773518	0
bin	79284.27345022	1
bin	89855.268126922	2
bin	100426.26280362	0
bin	110997.25748033	4
bin	121568.25215703	5
bin	132139.24683373	0
bin	142710.24151043	8
bin	153281.23618713	1
bin	163852.23086384	0
bin	174423.22554054	38
bin	184994.22021724	0
bin	195565.21489394	0
bin	206136.20957065	0
bin	216707.20424735	0
bin	227278.19892405	0
bin	237849.19360075	3
scalar scenarioPRJP1.node[59].lo0.lo 	droppedPkBitError:count 	0
attr interpolationmode  none
attr source  dropPkBitError
attr title  "packets dropped/bit error, count"
scalar scenarioPRJP1.node[59].lo0.lo 	droppedPkBitError:sum(packetBytes) 	0
attr interpolationmode  none
attr source  dropPkBitError
attr title  "packets dropped/bit error, sum(packetBytes)"
scalar scenarioPRJP1.node[59].lo0.lo 	rcvdPkFromHL:count 	0
attr interpolationmode  none
attr source  packetReceivedFromUpper
attr title  "packets received from higher layer, count"
scalar scenarioPRJP1.node[59].lo0.lo 	rcvdPkFromHL:sum(packetBytes) 	0
attr interpolationmode  none
attr source  packetReceivedFromUpper
attr title  "packets received from higher layer, sum(packetBytes)"
scalar scenarioPRJP1.node[59].lo0.lo 	passedUpPk:count 	0
attr interpolationmode  none
attr source  packetSentToUpper
attr title  "packets passed to higher layer, count"
scalar scenarioPRJP1.node[59].lo0.lo 	passedUpPk:sum(packetBytes) 	0
attr interpolationmode  none
attr source  packetSentToUpper
attr title  "packets passed to higher layer, sum(packetBytes)"
scalar scenarioPRJP1.node[88].app 	"Total sent" 	366
scalar scenarioPRJP1.node[88].app 	"Total received" 	39
scalar scenarioPRJP1.node[88].app 	"Total deleted" 	5
scalar scenarioPRJP1.node[88].app 	dropPk:count 	5
attr interpolationmode  none
attr source  dropPk
attr title  "packets dropped, count"
scalar scenarioPRJP1.node[88].app 	dropPk:sum(packetBytes) 	2560
attr interpolationmode  none
attr source  dropPk
attr title  "packets dropped, sum(packetBytes)"
scalar scenarioPRJP1.node[88].app 	outOfOrderPk:count 	0
attr interpolationmode  none
attr source  outOfOrderPk
attr title  "packets received out of order, count"
scalar scenarioPRJP1.node[88].app 	outOfOrderPk:sum(packetBytes) 	0
attr interpolationmode  none
attr source  outOfOrderPk
attr title  "packets received out of order, sum(packetBytes)"
scalar scenarioPRJP1.node[88].app 	rcvdPk:count 	39
attr interpolationmode  none
attr source  rcvdPk
attr title  "packets received, count"
scalar scenarioPRJP1.node[88].app 	rcvdPk:sum(packetBytes) 	19968
attr interpolationmode  none
attr source  rcvdPk
attr title  "packets received, sum(packetBytes)"
statistic scenarioPRJP1.node[88].app 	endToEndDelay:histogram
field count 39
field mean 4.5081747883656
field stddev 5.7437484149481
field sum 175.81881674626
field sqrsum 2046.2664994361
field min 0.000945022685
field max 19.605239161343
attr interpolationmode  none
attr source  messageAge(rcvdPk)
attr title  "delay, histogram"
attr unit  s
bin	-INF	0
bin	-9.801202046644	0
bin	-8.4942491040668	0
bin	-7.1872961614896	0
bin	-5.8803432189124	0
bin	-4.5733902763352	0
bin	-3.266437333758	0
bin	-1.9594843911808	0
bin	-0.6525314486036	18
bin	0.6544214939736	2
bin	1.9613744365508	0
bin	3.268327379128	4
bin	4.5752803217052	4
bin	5.8822332642824	1
bin	7.1891862068596	1
bin	8.4961391494368	1
bin	9.803092092014	3
bin	11.110045034591	1
bin	12.416997977168	1
bin	13.723950919746	0
bin	15.030903862323	0
bin	16.3378568049	0
bin	17.644809747477	2
bin	18.951762690054	1
bin	20.258715632632	0
bin	21.565668575209	0
bin	22.872621517786	0
bin	24.179574460363	0
bin	25.48652740294	0
bin	26.793480345518	0
bin	28.100433288095	0
bin	29.407386230672	0
scalar scenarioPRJP1.node[88].app 	sentPk:count 	366
attr interpolationmode  none
attr source  sentPk
attr title  "packets sent, count"
scalar scenarioPRJP1.node[88].app 	sentPk:sum(packetBytes) 	187392
attr interpolationmode  none
attr source  sentPk
attr title  "packets sent, sum(packetBytes)"
scalar scenarioPRJP1.node[88].udp 	droppedPkBadChecksum:count 	0
attr interpolationmode  none
attr title  "packets dropped (checksum error), count"
scalar scenarioPRJP1.node[88].udp 	droppedPkWrongPort:count 	0
attr interpolationmode  none
attr title  "packets dropped (wrong port), count"
scalar scenarioPRJP1.node[88].udp 	passedUpPk:count 	44
attr interpolationmode  none
attr title  "packets passed up, count"
scalar scenarioPRJP1.node[88].udp 	rcvdPk:count 	44
attr interpolationmode  none
attr source  rcvdPk
attr title  "packets received, count"
scalar scenarioPRJP1.node[88].udp 	rcvdPk:sum(packetBytes) 	22880
attr interpolationmode  none
attr source  rcvdPk
attr title  "packets received, sum(packetBytes)"
scalar scenarioPRJP1.node[88].udp 	sentPk:count 	366
attr interpolationmode  none
attr source  sentPk
attr title  "packets sent, count"
scalar scenarioPRJP1.node[88].udp 	sentPk:sum(packetBytes) 	190320
attr interpolationmode  none
attr source  sentPk
attr title  "packets sent, sum(packetBytes)"
scalar scenarioPRJP1.node[88].networkLayer.arp 	failedARPResolution:count 	1
attr title  "ARP failed resolutions, count"
scalar scenarioPRJP1.node[88].networkLayer.arp 	completedARPResolution:count 	67
attr title  "ARP completed resolutions, count"
scalar scenarioPRJP1.node[88].networkLayer.arp 	initiatedARPResolution:count 	10
attr title  "ARP initiated resolutions, count"
scalar scenarioPRJP1.node[88].networkLayer.arp 	sentReply:count 	10
attr title  "ARP replies sent, count"
scalar scenarioPRJP1.node[88].networkLayer.arp 	sentReq:count 	16
attr title  "ARP request sent, count"
scalar scenarioPRJP1.node[88].mobility 	startTime 	9.7
scalar scenarioPRJP1.node[88].mobility 	totalTime 	148.9
scalar scenarioPRJP1.node[88].mobility 	stopTime 	158.7
scalar scenarioPRJP1.node[88].mobility 	minSpeed 	2.476227987213e-13
scalar scenarioPRJP1.node[88].mobility 	maxSpeed 	19.644908817547
scalar scenarioPRJP1.node[88].mobility 	totalDistance 	1483.6815689361
scalar scenarioPRJP1.node[88].mobility 	totalCO2Emission 	476.24946646046
scalar scenarioPRJP1.node[88].wlan.mgmt 	dataQueueLen:max 	1
attr interpolationmode  sample-hold
attr title  "data queue length, max"
scalar scenarioPRJP1.node[88].wlan.mgmt 	dataQueueLen:timeavg 	0
attr interpolationmode  sample-hold
attr title  "data queue length, timeavg"
scalar scenarioPRJP1.node[88].wlan.mgmt 	dropPkByQueue:count 	0
attr interpolationmode  none
attr source  dropPkByQueue
attr title  "packets dropped by queue, count"
scalar scenarioPRJP1.node[88].wlan.mgmt 	dropPkByQueue:sum(packetBytes) 	0
attr interpolationmode  none
attr source  dropPkByQueue
attr title  "packets dropped by queue, sum(packetBytes)"
scalar scenarioPRJP1.node[88].wlan.mac 	"number of received packets" 	389
scalar scenarioPRJP1.node[88].wlan.mac 	"number of collisions" 	6491
scalar scenarioPRJP1.node[88].wlan.mac 	"number of internal collisions" 	0
scalar scenarioPRJP1.node[88].wlan.mac 	"number of retry for AC 0" 	1337
scalar scenarioPRJP1.node[88].wlan.mac 	"number of retry for AC 1" 	0
scalar scenarioPRJP1.node[88].wlan.mac 	"number of retry for AC 2" 	0
scalar scenarioPRJP1.node[88].wlan.mac 	"number of retry for AC 3" 	0
scalar scenarioPRJP1.node[88].wlan.mac 	"sent and received bits" 	2400072
scalar scenarioPRJP1.node[88].wlan.mac 	"sent packet within AC 0" 	83
scalar scenarioPRJP1.node[88].wlan.mac 	"sent packet within AC 1" 	0
scalar scenarioPRJP1.node[88].wlan.mac 	"sent packet within AC 2" 	0
scalar scenarioPRJP1.node[88].wlan.mac 	"sent packet within AC 3" 	0
scalar scenarioPRJP1.node[88].wlan.mac 	"sent in TXOP " 	0
scalar scenarioPRJP1.node[88].wlan.mac 	"sentWithoutRetry AC 0" 	55
scalar scenarioPRJP1.node[88].wlan.mac 	"sentWithoutRetry AC 1" 	0
scalar scenarioPRJP1.node[88].wlan.mac 	"sentWithoutRetry AC 2" 	0
scalar scenarioPRJP1.node[88].wlan.mac 	"sentWithoutRetry AC 3" 	0
scalar scenarioPRJP1.node[88].wlan.mac 	"numGivenUp AC 0" 	210
scalar scenarioPRJP1.node[88].wlan.mac 	"numGivenUp AC 1" 	0
scalar scenarioPRJP1.node[88].wlan.mac 	"numGivenUp AC 2" 	0
scalar scenarioPRJP1.node[88].wlan.mac 	"numGivenUp AC 3" 	0
scalar scenarioPRJP1.node[88].wlan.mac 	"numDropped AC 0" 	0
scalar scenarioPRJP1.node[88].wlan.mac 	"numDropped AC 1" 	0
scalar scenarioPRJP1.node[88].wlan.mac 	"numDropped AC 2" 	0
scalar scenarioPRJP1.node[88].wlan.mac 	"numDropped AC 3" 	0
scalar scenarioPRJP1.node[88].wlan.mac 	rcvdPkFromLL:count 	22919
attr interpolationmode  none
attr source  packetReceivedFromLower
attr title  "packets received from lower layer, count"
scalar scenarioPRJP1.node[88].wlan.mac 	rcvdPkFromLL:sum(packetBytes) 	6870882
attr interpolationmode  none
attr source  packetReceivedFromLower
attr title  "packets received from lower layer, sum(packetBytes)"
scalar scenarioPRJP1.node[88].wlan.mac 	sentDownPk:count 	4003
attr interpolationmode  none
attr source  packetSentToLower
attr title  "packets sent to lower layer, count"
scalar scenarioPRJP1.node[88].wlan.mac 	sentDownPk:sum(packetBytes) 	1172293
attr interpolationmode  none
attr source  packetSentToLower
attr title  "packets sent to lower layer, sum(packetBytes)"
scalar scenarioPRJP1.node[88].wlan.mac 	rcvdPkFromHL:count 	2277
attr interpolationmode  none
attr source  packetReceivedFromUpper
attr title  "packets received from higher layer, count"
scalar scenarioPRJP1.node[88].wlan.mac 	rcvdPkFromHL:sum(packetBytes) 	417507
attr interpolationmode  none
attr source  packetReceivedFromUpper
attr title  "packets received from higher layer, sum(packetBytes)"
scalar scenarioPRJP1.node[88].wlan.mac 	passedUpPk:count 	7858
attr interpolationmode  none
attr source  packetSentToUpper
attr title  "packets passed to higher layer, count"
scalar scenarioPRJP1.node[88].wlan.mac 	passedUpPk:sum(packetBytes) 	1102656
attr interpolationmode  none
attr source  packetSentToUpper
attr title  "packets passed to higher layer, sum(packetBytes)"
statistic scenarioPRJP1.node[88].wlan.radio 	radioChannel:histogram
field count 1
field mean 3
field stddev -nan
field sum 3
field sqrsum 9
field min 3
field max 3
attr interpolationmode  sample-hold
attr source  radioChannelChanged
attr title  "Radio channel, histogram"
bin	-INF	0
bin	2	0
bin	3	1
bin	4	0
scalar scenarioPRJP1.node[88].wlan.radio 	transmissionState:count 	16012
attr interpolationmode  sample-hold
attr source  transmissionStateChanged
attr title  "Radio transmission state, count"
scalar scenarioPRJP1.node[88].wlan.radio 	receptionState:count 	55612
attr interpolationmode  sample-hold
attr source  receptionStateChanged
attr title  "Radio reception state, count"
scalar scenarioPRJP1.node[88].wlan.radio 	radioMode:count 	8008
attr interpolationmode  sample-hold
attr source  radioModeChanged
attr title  "Radio mode, count"
statistic scenarioPRJP1.node[88].wlan.radio 	symbolErrorRate:histogram
field count 0
field mean -nan
field stddev -nan
field sum 0
field sqrsum 0
field min -nan
field max -nan
attr source  symbolErrorRate
attr title  "Symbol error rate, histogram"
bin	-INF	0
bin	-0.5	0
bin	-0.46666666666667	0
bin	-0.43333333333333	0
bin	-0.4	0
bin	-0.36666666666667	0
bin	-0.33333333333333	0
bin	-0.3	0
bin	-0.26666666666667	0
bin	-0.23333333333333	0
bin	-0.2	0
bin	-0.16666666666667	0
bin	-0.13333333333333	0
bin	-0.1	0
bin	-0.066666666666667	0
bin	-0.033333333333333	0
bin	0	0
bin	0.033333333333333	0
bin	0.066666666666667	0
bin	0.1	0
bin	0.13333333333333	0
bin	0.16666666666667	0
bin	0.2	0
bin	0.23333333333333	0
bin	0.26666666666667	0
bin	0.3	0
bin	0.33333333333333	0
bin	0.36666666666667	0
bin	0.4	0
bin	0.43333333333333	0
bin	0.46666666666667	0
bin	0.5	0
statistic scenarioPRJP1.node[88].wlan.radio 	bitErrorRate:histogram
field count 0
field mean -nan
field stddev -nan
field sum 0
field sqrsum 0
field min -nan
field max -nan
attr source  bitErrorRate
attr title  "Bit error rate, histogram"
bin	-INF	0
bin	-0.5	0
bin	-0.46666666666667	0
bin	-0.43333333333333	0
bin	-0.4	0
bin	-0.36666666666667	0
bin	-0.33333333333333	0
bin	-0.3	0
bin	-0.26666666666667	0
bin	-0.23333333333333	0
bin	-0.2	0
bin	-0.16666666666667	0
bin	-0.13333333333333	0
bin	-0.1	0
bin	-0.066666666666667	0
bin	-0.033333333333333	0
bin	0	0
bin	0.033333333333333	0
bin	0.066666666666667	0
bin	0.1	0
bin	0.13333333333333	0
bin	0.16666666666667	0
bin	0.2	0
bin	0.23333333333333	0
bin	0.26666666666667	0
bin	0.3	0
bin	0.33333333333333	0
bin	0.36666666666667	0
bin	0.4	0
bin	0.43333333333333	0
bin	0.46666666666667	0
bin	0.5	0
statistic scenarioPRJP1.node[88].wlan.radio 	packetErrorRate:histogram
field count 22919
field mean 0.25876795431653
field stddev 0.42681472664017
field sum 5930.7027449806
field sqrsum 5709.6664606555
field min 0
field max 1
attr source  packetErrorRate
attr title  "Packet error rate, histogram"
bin	-INF	0
bin	-0.47886393629019	0
bin	-0.4150154114515	0
bin	-0.35116688661281	0
bin	-0.28731836177412	0
bin	-0.22346983693542	0
bin	-0.15962131209673	0
bin	-0.095772787258039	0
bin	-0.031924262419346	16079
bin	0.031924262419346	367
bin	0.095772787258039	171
bin	0.15962131209673	104
bin	0.22346983693542	105
bin	0.28731836177412	76
bin	0.35116688661281	64
bin	0.4150154114515	61
bin	0.47886393629019	62
bin	0.54271246112889	55
bin	0.60656098596758	55
bin	0.67040951080627	63
bin	0.73425803564496	64
bin	0.79810656048365	61
bin	0.86195508532235	106
bin	0.92580361016104	173
bin	0.98965213499973	5253
bin	1.0535006598384	0
bin	1.1173491846771	0
bin	1.1811977095158	0
bin	1.2450462343545	0
bin	1.3088947591932	0
bin	1.3727432840319	0
bin	1.4365918088706	0
statistic scenarioPRJP1.node[88].wlan.radio 	minSNIR:histogram
field count 22919
field mean 2518.9065210122
field stddev 25426.67033366
field sum 57730818.555078
field sqrsum 14962262236955
field min 0.00027018133920166
field max 753239.71923443
attr source  minSNIR
attr title  "Min SNIR, histogram"
bin	-INF	0
bin	-21127.534157504	0
bin	-18310.304758848	0
bin	-15493.075360193	0
bin	-12675.845961538	0
bin	-9858.6165628821	0
bin	-7041.3871642267	0
bin	-4224.1577655712	0
bin	-1406.9283669157	19364
bin	1410.3010317397	1746
bin	4227.5304303952	597
bin	7044.7598290506	327
bin	9861.9892277061	213
bin	12679.218626362	120
bin	15496.448025017	106
bin	18313.677423672	74
bin	21130.906822328	60
bin	23948.136220983	56
bin	26765.365619639	22
bin	29582.595018294	25
bin	32399.82441695	15
bin	35217.053815605	14
bin	38034.283214261	14
bin	40851.512612916	5
bin	43668.742011572	7
bin	46485.971410227	8
bin	49303.200808883	7
bin	52120.430207538	6
bin	54937.659606193	4
bin	57754.889004849	7
bin	60572.118403504	5
bin	63389.34780216	117
scalar scenarioPRJP1.node[88].lo0.lo 	droppedPkBitError:count 	0
attr interpolationmode  none
attr source  dropPkBitError
attr title  "packets dropped/bit error, count"
scalar scenarioPRJP1.node[88].lo0.lo 	droppedPkBitError:sum(packetBytes) 	0
attr interpolationmode  none
attr source  dropPkBitError
attr title  "packets dropped/bit error, sum(packetBytes)"
scalar scenarioPRJP1.node[88].lo0.lo 	rcvdPkFromHL:count 	0
attr interpolationmode  none
attr source  packetReceivedFromUpper
attr title  "packets received from higher layer, count"
scalar scenarioPRJP1.node[88].lo0.lo 	rcvdPkFromHL:sum(packetBytes) 	0
attr interpolationmode  none
attr source  packetReceivedFromUpper
attr title  "packets received from higher layer, sum(packetBytes)"
scalar scenarioPRJP1.node[88].lo0.lo 	passedUpPk:count 	0
attr interpolationmode  none
attr source  packetSentToUpper
attr title  "packets passed to higher layer, count"
scalar scenarioPRJP1.node[88].lo0.lo 	passedUpPk:sum(packetBytes) 	0
attr interpolationmode  none
attr source  packetSentToUpper
attr title  "packets passed to higher layer, sum(packetBytes)"
scalar scenarioPRJP1.node[58].app 	"Total sent" 	371
scalar scenarioPRJP1.node[58].app 	"Total received" 	54
scalar scenarioPRJP1.node[58].app 	"Total deleted" 	5
scalar scenarioPRJP1.node[58].app 	dropPk:count 	5
attr interpolationmode  none
attr source  dropPk
attr title  "packets dropped, count"
scalar scenarioPRJP1.node[58].app 	dropPk:sum(packetBytes) 	2560
attr interpolationmode  none
attr source  dropPk
attr title  "packets dropped, sum(packetBytes)"
scalar scenarioPRJP1.node[58].app 	outOfOrderPk:count 	0
attr interpolationmode  none
attr source  outOfOrderPk
attr title  "packets received out of order, count"
scalar scenarioPRJP1.node[58].app 	outOfOrderPk:sum(packetBytes) 	0
attr interpolationmode  none
attr source  outOfOrderPk
attr title  "packets received out of order, sum(packetBytes)"
scalar scenarioPRJP1.node[58].app 	rcvdPk:count 	54
attr interpolationmode  none
attr source  rcvdPk
attr title  "packets received, count"
scalar scenarioPRJP1.node[58].app 	rcvdPk:sum(packetBytes) 	27648
attr interpolationmode  none
attr source  rcvdPk
attr title  "packets received, sum(packetBytes)"
statistic scenarioPRJP1.node[58].app 	endToEndDelay:histogram
field count 54
field mean 4.2077275179662
field stddev 5.1391406699073
field sum 227.21728597018
field sqrsum 2355.8390684644
field min 0.000945269531
field max 16.613011947309
attr interpolationmode  none
attr source  messageAge(rcvdPk)
attr title  "delay, histogram"
attr unit  s
bin	-INF	0
bin	-8.305088069358	0
bin	-7.1976169575061	0
bin	-6.0901458456543	0
bin	-4.9826747338024	0
bin	-3.8752036219505	0
bin	-2.7677325100987	0
bin	-1.6602613982468	0
bin	-0.55279028639493	24
bin	0.55468082545693	4
bin	1.6621519373088	1
bin	2.7696230491607	3
bin	3.8770941610125	1
bin	4.9845652728644	5
bin	6.0920363847163	2
bin	7.1995074965681	2
bin	8.30697860842	2
bin	9.4144497202719	1
bin	10.521920832124	3
bin	11.629391943976	2
bin	12.736863055827	0
bin	13.844334167679	0
bin	14.951805279531	3
bin	16.059276391383	1
bin	17.166747503235	0
bin	18.274218615087	0
bin	19.381689726939	0
bin	20.489160838791	0
bin	21.596631950642	0
bin	22.704103062494	0
bin	23.811574174346	0
bin	24.919045286198	0
scalar scenarioPRJP1.node[58].app 	sentPk:count 	371
attr interpolationmode  none
attr source  sentPk
attr title  "packets sent, count"
scalar scenarioPRJP1.node[58].app 	sentPk:sum(packetBytes) 	189952
attr interpolationmode  none
attr source  sentPk
attr title  "packets sent, sum(packetBytes)"
scalar scenarioPRJP1.node[58].udp 	droppedPkBadChecksum:count 	0
attr interpolationmode  none
attr title  "packets dropped (checksum error), count"
scalar scenarioPRJP1.node[58].udp 	droppedPkWrongPort:count 	0
attr interpolationmode  none
attr title  "packets dropped (wrong port), count"
scalar scenarioPRJP1.node[58].udp 	passedUpPk:count 	59
attr interpolationmode  none
attr title  "packets passed up, count"
scalar scenarioPRJP1.node[58].udp 	rcvdPk:count 	59
attr interpolationmode  none
attr source  rcvdPk
attr title  "packets received, count"
scalar scenarioPRJP1.node[58].udp 	rcvdPk:sum(packetBytes) 	30680
attr interpolationmode  none
attr source  rcvdPk
attr title  "packets received, sum(packetBytes)"
scalar scenarioPRJP1.node[58].udp 	sentPk:count 	371
attr interpolationmode  none
attr source  sentPk
attr title  "packets sent, count"
scalar scenarioPRJP1.node[58].udp 	sentPk:sum(packetBytes) 	192920
attr interpolationmode  none
attr source  sentPk
attr title  "packets sent, sum(packetBytes)"
scalar scenarioPRJP1.node[58].networkLayer.arp 	failedARPResolution:count 	2
attr title  "ARP failed resolutions, count"
scalar scenarioPRJP1.node[58].networkLayer.arp 	completedARPResolution:count 	115
attr title  "ARP completed resolutions, count"
scalar scenarioPRJP1.node[58].networkLayer.arp 	initiatedARPResolution:count 	18
attr title  "ARP initiated resolutions, count"
scalar scenarioPRJP1.node[58].networkLayer.arp 	sentReply:count 	9
attr title  "ARP replies sent, count"
scalar scenarioPRJP1.node[58].networkLayer.arp 	sentReq:count 	29
attr title  "ARP request sent, count"
scalar scenarioPRJP1.node[58].mobility 	startTime 	5
scalar scenarioPRJP1.node[58].mobility 	totalTime 	155.2
scalar scenarioPRJP1.node[58].mobility 	stopTime 	160.3
scalar scenarioPRJP1.node[58].mobility 	minSpeed 	2.4761172481858e-13
scalar scenarioPRJP1.node[58].mobility 	maxSpeed 	17.991768041093
scalar scenarioPRJP1.node[58].mobility 	totalDistance 	1484.5566005175
scalar scenarioPRJP1.node[58].mobility 	totalCO2Emission 	442.7192208049
scalar scenarioPRJP1.node[58].wlan.mgmt 	dataQueueLen:max 	5
attr interpolationmode  sample-hold
attr title  "data queue length, max"
scalar scenarioPRJP1.node[58].wlan.mgmt 	dataQueueLen:timeavg 	0
attr interpolationmode  sample-hold
attr title  "data queue length, timeavg"
scalar scenarioPRJP1.node[58].wlan.mgmt 	dropPkByQueue:count 	0
attr interpolationmode  none
attr source  dropPkByQueue
attr title  "packets dropped by queue, count"
scalar scenarioPRJP1.node[58].wlan.mgmt 	dropPkByQueue:sum(packetBytes) 	0
attr interpolationmode  none
attr source  dropPkByQueue
attr title  "packets dropped by queue, sum(packetBytes)"
scalar scenarioPRJP1.node[58].wlan.mac 	"number of received packets" 	761
scalar scenarioPRJP1.node[58].wlan.mac 	"number of collisions" 	5680
scalar scenarioPRJP1.node[58].wlan.mac 	"number of internal collisions" 	0
scalar scenarioPRJP1.node[58].wlan.mac 	"number of retry for AC 0" 	1285
scalar scenarioPRJP1.node[58].wlan.mac 	"number of retry for AC 1" 	0
scalar scenarioPRJP1.node[58].wlan.mac 	"number of retry for AC 2" 	0
scalar scenarioPRJP1.node[58].wlan.mac 	"number of retry for AC 3" 	0
scalar scenarioPRJP1.node[58].wlan.mac 	"sent and received bits" 	3256720
scalar scenarioPRJP1.node[58].wlan.mac 	"sent packet within AC 0" 	139
scalar scenarioPRJP1.node[58].wlan.mac 	"sent packet within AC 1" 	0
scalar scenarioPRJP1.node[58].wlan.mac 	"sent packet within AC 2" 	0
scalar scenarioPRJP1.node[58].wlan.mac 	"sent packet within AC 3" 	0
scalar scenarioPRJP1.node[58].wlan.mac 	"sent in TXOP " 	0
scalar scenarioPRJP1.node[58].wlan.mac 	"sentWithoutRetry AC 0" 	102
scalar scenarioPRJP1.node[58].wlan.mac 	"sentWithoutRetry AC 1" 	0
scalar scenarioPRJP1.node[58].wlan.mac 	"sentWithoutRetry AC 2" 	0
scalar scenarioPRJP1.node[58].wlan.mac 	"sentWithoutRetry AC 3" 	0
scalar scenarioPRJP1.node[58].wlan.mac 	"numGivenUp AC 0" 	197
scalar scenarioPRJP1.node[58].wlan.mac 	"numGivenUp AC 1" 	0
scalar scenarioPRJP1.node[58].wlan.mac 	"numGivenUp AC 2" 	0
scalar scenarioPRJP1.node[58].wlan.mac 	"numGivenUp AC 3" 	0
scalar scenarioPRJP1.node[58].wlan.mac 	"numDropped AC 0" 	0
scalar scenarioPRJP1.node[58].wlan.mac 	"numDropped AC 1" 	0
scalar scenarioPRJP1.node[58].wlan.mac 	"numDropped AC 2" 	0
scalar scenarioPRJP1.node[58].wlan.mac 	"numDropped AC 3" 	0
scalar scenarioPRJP1.node[58].wlan.mac 	rcvdPkFromLL:count 	24311
attr interpolationmode  none
attr source  packetReceivedFromLower
attr title  "packets received from lower layer, count"
scalar scenarioPRJP1.node[58].wlan.mac 	rcvdPkFromLL:sum(packetBytes) 	7083292
attr interpolationmode  none
attr source  packetReceivedFromLower
attr title  "packets received from lower layer, sum(packetBytes)"
scalar scenarioPRJP1.node[58].wlan.mac 	sentDownPk:count 	4591
attr interpolationmode  none
attr source  packetSentToLower
attr title  "packets sent to lower layer, count"
scalar scenarioPRJP1.node[58].wlan.mac 	sentDownPk:sum(packetBytes) 	1239673
attr interpolationmode  none
attr source  packetSentToLower
attr title  "packets sent to lower layer, sum(packetBytes)"
scalar scenarioPRJP1.node[58].wlan.mac 	rcvdPkFromHL:count 	2545
attr interpolationmode  none
attr source  packetReceivedFromUpper
attr title  "packets received from higher layer, count"
scalar scenarioPRJP1.node[58].wlan.mac 	rcvdPkFromHL:sum(packetBytes) 	516033
attr interpolationmode  none
attr source  packetReceivedFromUpper
attr title  "packets received from higher layer, sum(packetBytes)"
scalar scenarioPRJP1.node[58].wlan.mac 	passedUpPk:count 	8319
attr interpolationmode  none
attr source  packetSentToUpper
attr title  "packets passed to higher layer, count"
scalar scenarioPRJP1.node[58].wlan.mac 	passedUpPk:sum(packetBytes) 	1338010
attr interpolationmode  none
attr source  packetSentToUpper
attr title  "packets passed to higher layer, sum(packetBytes)"
statistic scenarioPRJP1.node[58].wlan.radio 	radioChannel:histogram
field count 1
field mean 3
field stddev -nan
field sum 3
field sqrsum 9
field min 3
field max 3
attr interpolationmode  sample-hold
attr source  radioChannelChanged
attr title  "Radio channel, histogram"
bin	-INF	0
bin	2	0
bin	3	1
bin	4	0
scalar scenarioPRJP1.node[58].wlan.radio 	transmissionState:count 	18364
attr interpolationmode  sample-hold
attr source  transmissionStateChanged
attr title  "Radio transmission state, count"
scalar scenarioPRJP1.node[58].wlan.radio 	receptionState:count 	59183
attr interpolationmode  sample-hold
attr source  receptionStateChanged
attr title  "Radio reception state, count"
scalar scenarioPRJP1.node[58].wlan.radio 	radioMode:count 	9184
attr interpolationmode  sample-hold
attr source  radioModeChanged
attr title  "Radio mode, count"
statistic scenarioPRJP1.node[58].wlan.radio 	symbolErrorRate:histogram
field count 0
field mean -nan
field stddev -nan
field sum 0
field sqrsum 0
field min -nan
field max -nan
attr source  symbolErrorRate
attr title  "Symbol error rate, histogram"
bin	-INF	0
bin	-0.5	0
bin	-0.46666666666667	0
bin	-0.43333333333333	0
bin	-0.4	0
bin	-0.36666666666667	0
bin	-0.33333333333333	0
bin	-0.3	0
bin	-0.26666666666667	0
bin	-0.23333333333333	0
bin	-0.2	0
bin	-0.16666666666667	0
bin	-0.13333333333333	0
bin	-0.1	0
bin	-0.066666666666667	0
bin	-0.033333333333333	0
bin	0	0
bin	0.033333333333333	0
bin	0.066666666666667	0
bin	0.1	0
bin	0.13333333333333	0
bin	0.16666666666667	0
bin	0.2	0
bin	0.23333333333333	0
bin	0.26666666666667	0
bin	0.3	0
bin	0.33333333333333	0
bin	0.36666666666667	0
bin	0.4	0
bin	0.43333333333333	0
bin	0.46666666666667	0
bin	0.5	0
statistic scenarioPRJP1.node[58].wlan.radio 	bitErrorRate:histogram
field count 0
field mean -nan
field stddev -nan
field sum 0
field sqrsum 0
field min -nan
field max -nan
attr source  bitErrorRate
attr title  "Bit error rate, histogram"
bin	-INF	0
bin	-0.5	0
bin	-0.46666666666667	0
bin	-0.43333333333333	0
bin	-0.4	0
bin	-0.36666666666667	0
bin	-0.33333333333333	0
bin	-0.3	0
bin	-0.26666666666667	0
bin	-0.23333333333333	0
bin	-0.2	0
bin	-0.16666666666667	0
bin	-0.13333333333333	0
bin	-0.1	0
bin	-0.066666666666667	0
bin	-0.033333333333333	0
bin	0	0
bin	0.033333333333333	0
bin	0.066666666666667	0
bin	0.1	0
bin	0.13333333333333	0
bin	0.16666666666667	0
bin	0.2	0
bin	0.23333333333333	0
bin	0.26666666666667	0
bin	0.3	0
bin	0.33333333333333	0
bin	0.36666666666667	0
bin	0.4	0
bin	0.43333333333333	0
bin	0.46666666666667	0
bin	0.5	0
statistic scenarioPRJP1.node[58].wlan.radio 	packetErrorRate:histogram
field count 24311
field mean 0.20852509757577
field stddev 0.39428760595897
field sum 5069.4536471646
field sqrsum 4836.4069475655
field min 0
field max 1
attr source  packetErrorRate
attr title  "Packet error rate, histogram"
bin	-INF	0
bin	-0.029241107758577	0
bin	-0.025342293390767	0
bin	-0.021443479022956	0
bin	-0.017544664655146	0
bin	-0.013645850287336	0
bin	-0.0097470359195256	0
bin	-0.0058482215517154	0
bin	-0.0019494071839051	17369
bin	0.0019494071839051	336
bin	0.0058482215517154	160
bin	0.0097470359195256	111
bin	0.013645850287336	89
bin	0.017544664655146	68
bin	0.021443479022956	56
bin	0.025342293390767	52
bin	0.029241107758577	45
bin	0.033139922126387	37
bin	0.037038736494197	31
bin	0.040937550862008	32
bin	0.044836365229818	22
bin	0.048735179597628	37
bin	0.052633993965438	23
bin	0.056532808333249	29
bin	0.060431622701059	14
bin	0.064330437068869	25
bin	0.068229251436679	26
bin	0.07212806580449	25
bin	0.0760268801723	15
bin	0.07992569454011	17
bin	0.08382450890792	15
bin	0.087723323275731	5677
statistic scenarioPRJP1.node[58].wlan.radio 	minSNIR:histogram
field count 24311
field mean 3162.2576937065
field stddev 41476.212118993
field sum 76877646.791699
field sqrsum 42063020665033
field min 0.0015474176401578
field max 753239.71750888
attr source  minSNIR
attr title  "Min SNIR, histogram"
bin	-INF	0
bin	-80230.551740279	0
bin	-69532.858872489	0
bin	-58835.166004699	0
bin	-48137.473136909	0
bin	-37439.780269119	0
bin	-26742.08740133	0
bin	-16044.39453354	0
bin	-5346.7016657501	23564
bin	5350.9912020397	352
bin	16048.684069829	138
bin	26746.376937619	39
bin	37444.069805409	47
bin	48141.762673199	20
bin	58839.455540989	7
bin	69537.148408778	7
bin	80234.841276568	13
bin	90932.534144358	9
bin	101630.22701215	8
bin	112327.91987994	4
bin	123025.61274773	5
bin	133723.30561552	4
bin	144420.99848331	2
bin	155118.6913511	8
bin	165816.38421889	6
bin	176514.07708668	3
bin	187211.76995447	3
bin	197909.46282226	0
bin	208607.15569005	0
bin	219304.84855784	0
bin	230002.54142562	0
bin	240700.23429341	72
scalar scenarioPRJP1.node[58].lo0.lo 	droppedPkBitError:count 	0
attr interpolationmode  none
attr source  dropPkBitError
attr title  "packets dropped/bit error, count"
scalar scenarioPRJP1.node[58].lo0.lo 	droppedPkBitError:sum(packetBytes) 	0
attr interpolationmode  none
attr source  dropPkBitError
attr title  "packets dropped/bit error, sum(packetBytes)"
scalar scenarioPRJP1.node[58].lo0.lo 	rcvdPkFromHL:count 	0
attr interpolationmode  none
attr source  packetReceivedFromUpper
attr title  "packets received from higher layer, count"
scalar scenarioPRJP1.node[58].lo0.lo 	rcvdPkFromHL:sum(packetBytes) 	0
attr interpolationmode  none
attr source  packetReceivedFromUpper
attr title  "packets received from higher layer, sum(packetBytes)"
scalar scenarioPRJP1.node[58].lo0.lo 	passedUpPk:count 	0
attr interpolationmode  none
attr source  packetSentToUpper
attr title  "packets passed to higher layer, count"
scalar scenarioPRJP1.node[58].lo0.lo 	passedUpPk:sum(packetBytes) 	0
attr interpolationmode  none
attr source  packetSentToUpper
attr title  "packets passed to higher layer, sum(packetBytes)"
scalar scenarioPRJP1.node[61].app 	"Total sent" 	373
scalar scenarioPRJP1.node[61].app 	"Total received" 	34
scalar scenarioPRJP1.node[61].app 	"Total deleted" 	11
scalar scenarioPRJP1.node[61].app 	dropPk:count 	11
attr interpolationmode  none
attr source  dropPk
attr title  "packets dropped, count"
scalar scenarioPRJP1.node[61].app 	dropPk:sum(packetBytes) 	5632
attr interpolationmode  none
attr source  dropPk
attr title  "packets dropped, sum(packetBytes)"
scalar scenarioPRJP1.node[61].app 	outOfOrderPk:count 	0
attr interpolationmode  none
attr source  outOfOrderPk
attr title  "packets received out of order, count"
scalar scenarioPRJP1.node[61].app 	outOfOrderPk:sum(packetBytes) 	0
attr interpolationmode  none
attr source  outOfOrderPk
attr title  "packets received out of order, sum(packetBytes)"
scalar scenarioPRJP1.node[61].app 	rcvdPk:count 	34
attr interpolationmode  none
attr source  rcvdPk
attr title  "packets received, count"
scalar scenarioPRJP1.node[61].app 	rcvdPk:sum(packetBytes) 	17408
attr interpolationmode  none
attr source  rcvdPk
attr title  "packets received, sum(packetBytes)"
statistic scenarioPRJP1.node[61].app 	endToEndDelay:histogram
field count 34
field mean 4.6184705321787
field stddev 6.3713517434185
field sum 157.02799809408
field sqrsum 2064.8352421905
field min 0.000971029466
field max 18.653383265074
attr interpolationmode  none
attr source  messageAge(rcvdPk)
attr title  "delay, histogram"
attr unit  s
bin	-INF	0
bin	-9.325235088338	0
bin	-8.0817409392975	0
bin	-6.8382467902569	0
bin	-5.5947526412164	0
bin	-4.3512584921759	0
bin	-3.1077643431353	0
bin	-1.8642701940948	0
bin	-0.62077604505427	17
bin	0.62271810398627	2
bin	1.8662122530268	1
bin	3.1097064020673	2
bin	4.3532005511079	1
bin	5.5966947001484	0
bin	6.8401888491889	3
bin	8.0836829982295	0
bin	9.32717714727	1
bin	10.570671296311	1
bin	11.814165445351	0
bin	13.057659594392	1
bin	14.301153743432	1
bin	15.544647892473	1
bin	16.788142041513	2
bin	18.031636190554	1
bin	19.275130339594	0
bin	20.518624488635	0
bin	21.762118637675	0
bin	23.005612786716	0
bin	24.249106935756	0
bin	25.492601084797	0
bin	26.736095233837	0
bin	27.979589382878	0
scalar scenarioPRJP1.node[61].app 	sentPk:count 	373
attr interpolationmode  none
attr source  sentPk
attr title  "packets sent, count"
scalar scenarioPRJP1.node[61].app 	sentPk:sum(packetBytes) 	190976
attr interpolationmode  none
attr source  sentPk
attr title  "packets sent, sum(packetBytes)"
scalar scenarioPRJP1.node[61].udp 	droppedPkBadChecksum:count 	0
attr interpolationmode  none
attr title  "packets dropped (checksum error), count"
scalar scenarioPRJP1.node[61].udp 	droppedPkWrongPort:count 	0
attr interpolationmode  none
attr title  "packets dropped (wrong port), count"
scalar scenarioPRJP1.node[61].udp 	passedUpPk:count 	45
attr interpolationmode  none
attr title  "packets passed up, count"
scalar scenarioPRJP1.node[61].udp 	rcvdPk:count 	45
attr interpolationmode  none
attr source  rcvdPk
attr title  "packets received, count"
scalar scenarioPRJP1.node[61].udp 	rcvdPk:sum(packetBytes) 	23400
attr interpolationmode  none
attr source  rcvdPk
attr title  "packets received, sum(packetBytes)"
scalar scenarioPRJP1.node[61].udp 	sentPk:count 	373
attr interpolationmode  none
attr source  sentPk
attr title  "packets sent, count"
scalar scenarioPRJP1.node[61].udp 	sentPk:sum(packetBytes) 	193960
attr interpolationmode  none
attr source  sentPk
attr title  "packets sent, sum(packetBytes)"
scalar scenarioPRJP1.node[61].networkLayer.arp 	failedARPResolution:count 	1
attr title  "ARP failed resolutions, count"
scalar scenarioPRJP1.node[61].networkLayer.arp 	completedARPResolution:count 	135
attr title  "ARP completed resolutions, count"
scalar scenarioPRJP1.node[61].networkLayer.arp 	initiatedARPResolution:count 	15
attr title  "ARP initiated resolutions, count"
scalar scenarioPRJP1.node[61].networkLayer.arp 	sentReply:count 	16
attr title  "ARP replies sent, count"
scalar scenarioPRJP1.node[61].networkLayer.arp 	sentReq:count 	25
attr title  "ARP request sent, count"
scalar scenarioPRJP1.node[61].mobility 	startTime 	7.3
scalar scenarioPRJP1.node[61].mobility 	totalTime 	153.1
scalar scenarioPRJP1.node[61].mobility 	stopTime 	160.5
scalar scenarioPRJP1.node[61].mobility 	minSpeed 	2.4755245701449e-13
scalar scenarioPRJP1.node[61].mobility 	maxSpeed 	17.724065959375
scalar scenarioPRJP1.node[61].mobility 	totalDistance 	1484.8594859346
scalar scenarioPRJP1.node[61].mobility 	totalCO2Emission 	446.86273985766
scalar scenarioPRJP1.node[61].wlan.mgmt 	dataQueueLen:max 	14
attr interpolationmode  sample-hold
attr title  "data queue length, max"
scalar scenarioPRJP1.node[61].wlan.mgmt 	dataQueueLen:timeavg 	0
attr interpolationmode  sample-hold
attr title  "data queue length, timeavg"
scalar scenarioPRJP1.node[61].wlan.mgmt 	dropPkByQueue:count 	0
attr interpolationmode  none
attr source  dropPkByQueue
attr title  "packets dropped by queue, count"
scalar scenarioPRJP1.node[61].wlan.mgmt 	dropPkByQueue:sum(packetBytes) 	0
attr interpolationmode  none
attr source  dropPkByQueue
attr title  "packets dropped by queue, sum(packetBytes)"
scalar scenarioPRJP1.node[61].wlan.mac 	"number of received packets" 	311
scalar scenarioPRJP1.node[61].wlan.mac 	"number of collisions" 	6034
scalar scenarioPRJP1.node[61].wlan.mac 	"number of internal collisions" 	0
scalar scenarioPRJP1.node[61].wlan.mac 	"number of retry for AC 0" 	1072
scalar scenarioPRJP1.node[61].wlan.mac 	"number of retry for AC 1" 	0
scalar scenarioPRJP1.node[61].wlan.mac 	"number of retry for AC 2" 	0
scalar scenarioPRJP1.node[61].wlan.mac 	"number of retry for AC 3" 	0
scalar scenarioPRJP1.node[61].wlan.mac 	"sent and received bits" 	3021448
scalar scenarioPRJP1.node[61].wlan.mac 	"sent packet within AC 0" 	100
scalar scenarioPRJP1.node[61].wlan.mac 	"sent packet within AC 1" 	0
scalar scenarioPRJP1.node[61].wlan.mac 	"sent packet within AC 2" 	0
scalar scenarioPRJP1.node[61].wlan.mac 	"sent packet within AC 3" 	0
scalar scenarioPRJP1.node[61].wlan.mac 	"sent in TXOP " 	0
scalar scenarioPRJP1.node[61].wlan.mac 	"sentWithoutRetry AC 0" 	76
scalar scenarioPRJP1.node[61].wlan.mac 	"sentWithoutRetry AC 1" 	0
scalar scenarioPRJP1.node[61].wlan.mac 	"sentWithoutRetry AC 2" 	0
scalar scenarioPRJP1.node[61].wlan.mac 	"sentWithoutRetry AC 3" 	0
scalar scenarioPRJP1.node[61].wlan.mac 	"numGivenUp AC 0" 	168
scalar scenarioPRJP1.node[61].wlan.mac 	"numGivenUp AC 1" 	0
scalar scenarioPRJP1.node[61].wlan.mac 	"numGivenUp AC 2" 	0
scalar scenarioPRJP1.node[61].wlan.mac 	"numGivenUp AC 3" 	0
scalar scenarioPRJP1.node[61].wlan.mac 	"numDropped AC 0" 	0
scalar scenarioPRJP1.node[61].wlan.mac 	"numDropped AC 1" 	0
scalar scenarioPRJP1.node[61].wlan.mac 	"numDropped AC 2" 	0
scalar scenarioPRJP1.node[61].wlan.mac 	"numDropped AC 3" 	0
scalar scenarioPRJP1.node[61].wlan.mac 	rcvdPkFromLL:count 	24108
attr interpolationmode  none
attr source  packetReceivedFromLower
attr title  "packets received from lower layer, count"
scalar scenarioPRJP1.node[61].wlan.mac 	rcvdPkFromLL:sum(packetBytes) 	6510646
attr interpolationmode  none
attr source  packetReceivedFromLower
attr title  "packets received from lower layer, sum(packetBytes)"
scalar scenarioPRJP1.node[61].wlan.mac 	sentDownPk:count 	3874
attr interpolationmode  none
attr source  packetSentToLower
attr title  "packets sent to lower layer, count"
scalar scenarioPRJP1.node[61].wlan.mac 	sentDownPk:sum(packetBytes) 	1054284
attr interpolationmode  none
attr source  packetSentToLower
attr title  "packets sent to lower layer, sum(packetBytes)"
scalar scenarioPRJP1.node[61].wlan.mac 	rcvdPkFromHL:count 	2491
attr interpolationmode  none
attr source  packetReceivedFromUpper
attr title  "packets received from higher layer, count"
scalar scenarioPRJP1.node[61].wlan.mac 	rcvdPkFromHL:sum(packetBytes) 	468883
attr interpolationmode  none
attr source  packetReceivedFromUpper
attr title  "packets received from higher layer, sum(packetBytes)"
scalar scenarioPRJP1.node[61].wlan.mac 	passedUpPk:count 	9142
attr interpolationmode  none
attr source  packetSentToUpper
attr title  "packets passed to higher layer, count"
scalar scenarioPRJP1.node[61].wlan.mac 	passedUpPk:sum(packetBytes) 	1354385
attr interpolationmode  none
attr source  packetSentToUpper
attr title  "packets passed to higher layer, sum(packetBytes)"
statistic scenarioPRJP1.node[61].wlan.radio 	radioChannel:histogram
field count 1
field mean 3
field stddev -nan
field sum 3
field sqrsum 9
field min 3
field max 3
attr interpolationmode  sample-hold
attr source  radioChannelChanged
attr title  "Radio channel, histogram"
bin	-INF	0
bin	2	0
bin	3	1
bin	4	0
scalar scenarioPRJP1.node[61].wlan.radio 	transmissionState:count 	15496
attr interpolationmode  sample-hold
attr source  transmissionStateChanged
attr title  "Radio transmission state, count"
scalar scenarioPRJP1.node[61].wlan.radio 	receptionState:count 	57423
attr interpolationmode  sample-hold
attr source  receptionStateChanged
attr title  "Radio reception state, count"
scalar scenarioPRJP1.node[61].wlan.radio 	radioMode:count 	7750
attr interpolationmode  sample-hold
attr source  radioModeChanged
attr title  "Radio mode, count"
statistic scenarioPRJP1.node[61].wlan.radio 	symbolErrorRate:histogram
field count 0
field mean -nan
field stddev -nan
field sum 0
field sqrsum 0
field min -nan
field max -nan
attr source  symbolErrorRate
attr title  "Symbol error rate, histogram"
bin	-INF	0
bin	-0.5	0
bin	-0.46666666666667	0
bin	-0.43333333333333	0
bin	-0.4	0
bin	-0.36666666666667	0
bin	-0.33333333333333	0
bin	-0.3	0
bin	-0.26666666666667	0
bin	-0.23333333333333	0
bin	-0.2	0
bin	-0.16666666666667	0
bin	-0.13333333333333	0
bin	-0.1	0
bin	-0.066666666666667	0
bin	-0.033333333333333	0
bin	0	0
bin	0.033333333333333	0
bin	0.066666666666667	0
bin	0.1	0
bin	0.13333333333333	0
bin	0.16666666666667	0
bin	0.2	0
bin	0.23333333333333	0
bin	0.26666666666667	0
bin	0.3	0
bin	0.33333333333333	0
bin	0.36666666666667	0
bin	0.4	0
bin	0.43333333333333	0
bin	0.46666666666667	0
bin	0.5	0
statistic scenarioPRJP1.node[61].wlan.radio 	bitErrorRate:histogram
field count 0
field mean -nan
field stddev -nan
field sum 0
field sqrsum 0
field min -nan
field max -nan
attr source  bitErrorRate
attr title  "Bit error rate, histogram"
bin	-INF	0
bin	-0.5	0
bin	-0.46666666666667	0
bin	-0.43333333333333	0
bin	-0.4	0
bin	-0.36666666666667	0
bin	-0.33333333333333	0
bin	-0.3	0
bin	-0.26666666666667	0
bin	-0.23333333333333	0
bin	-0.2	0
bin	-0.16666666666667	0
bin	-0.13333333333333	0
bin	-0.1	0
bin	-0.066666666666667	0
bin	-0.033333333333333	0
bin	0	0
bin	0.033333333333333	0
bin	0.066666666666667	0
bin	0.1	0
bin	0.13333333333333	0
bin	0.16666666666667	0
bin	0.2	0
bin	0.23333333333333	0
bin	0.26666666666667	0
bin	0.3	0
bin	0.33333333333333	0
bin	0.36666666666667	0
bin	0.4	0
bin	0.43333333333333	0
bin	0.46666666666667	0
bin	0.5	0
statistic scenarioPRJP1.node[61].wlan.radio 	packetErrorRate:histogram
field count 24108
field mean 0.21778982019271
field stddev 0.4011105137445
field sum 5250.4769852059
field sqrsum 5022.0670921403
field min 0
field max 1
attr source  packetErrorRate
attr title  "Packet error rate, histogram"
bin	-INF	0
bin	-0.00090787917003765	0
bin	-0.00078682861403263	0
bin	-0.00066577805802761	0
bin	-0.00054472750202259	0
bin	-0.00042367694601757	0
bin	-0.00030262639001255	0
bin	-0.00018157583400753	0
bin	-6.052527800251e-05	15899
bin	6.052527800251e-05	292
bin	0.00018157583400753	153
bin	0.00030262639001255	107
bin	0.00042367694601757	84
bin	0.00054472750202259	64
bin	0.00066577805802761	45
bin	0.00078682861403263	54
bin	0.00090787917003765	40
bin	0.0010289297260427	36
bin	0.0011499802820477	36
bin	0.0012710308380527	36
bin	0.0013920813940577	34
bin	0.0015131319500628	21
bin	0.0016341825060678	18
bin	0.0017552330620728	16
bin	0.0018762836180778	17
bin	0.0019973341740828	22
bin	0.0021183847300879	27
bin	0.0022394352860929	17
bin	0.0023604858420979	16
bin	0.0024815363981029	14
bin	0.0026025869541079	18
bin	0.002723637510113	7042
statistic scenarioPRJP1.node[61].wlan.radio 	minSNIR:histogram
field count 24108
field mean 1531.851306354
field stddev 22024.153205881
field sum 36929871.293583
field sqrsum 11749992633766
field min 0.00083806154497129
field max 753237.88052626
attr source  minSNIR
attr title  "Min SNIR, histogram"
bin	-INF	0
bin	-17661.694514543	0
bin	-15306.429481475	0
bin	-12951.164448408	0
bin	-10595.89941534	0
bin	-8240.634382273	0
bin	-5885.3693492056	0
bin	-3530.1043161382	0
bin	-1174.8392830708	22599
bin	1180.4257499967	697
bin	3535.6907830641	246
bin	5890.9558161315	102
bin	8246.2208491989	64
bin	10601.485882266	55
bin	12956.750915334	34
bin	15312.015948401	27
bin	17667.280981469	31
bin	20022.546014536	26
bin	22377.811047604	6
bin	24733.076080671	9
bin	27088.341113738	7
bin	29443.606146806	10
bin	31798.871179873	25
bin	34154.136212941	11
bin	36509.401246008	4
bin	38864.666279075	6
bin	41219.931312143	4
bin	43575.19634521	5
bin	45930.461378278	9
bin	48285.726411345	2
bin	50640.991444413	2
bin	52996.25647748	127
scalar scenarioPRJP1.node[61].lo0.lo 	droppedPkBitError:count 	0
attr interpolationmode  none
attr source  dropPkBitError
attr title  "packets dropped/bit error, count"
scalar scenarioPRJP1.node[61].lo0.lo 	droppedPkBitError:sum(packetBytes) 	0
attr interpolationmode  none
attr source  dropPkBitError
attr title  "packets dropped/bit error, sum(packetBytes)"
scalar scenarioPRJP1.node[61].lo0.lo 	rcvdPkFromHL:count 	0
attr interpolationmode  none
attr source  packetReceivedFromUpper
attr title  "packets received from higher layer, count"
scalar scenarioPRJP1.node[61].lo0.lo 	rcvdPkFromHL:sum(packetBytes) 	0
attr interpolationmode  none
attr source  packetReceivedFromUpper
attr title  "packets received from higher layer, sum(packetBytes)"
scalar scenarioPRJP1.node[61].lo0.lo 	passedUpPk:count 	0
attr interpolationmode  none
attr source  packetSentToUpper
attr title  "packets passed to higher layer, count"
scalar scenarioPRJP1.node[61].lo0.lo 	passedUpPk:sum(packetBytes) 	0
attr interpolationmode  none
attr source  packetSentToUpper
attr title  "packets passed to higher layer, sum(packetBytes)"
scalar scenarioPRJP1.node[32].app 	"Total sent" 	621
scalar scenarioPRJP1.node[32].app 	"Total received" 	87
scalar scenarioPRJP1.node[32].app 	"Total deleted" 	6
scalar scenarioPRJP1.node[32].app 	dropPk:count 	6
attr interpolationmode  none
attr source  dropPk
attr title  "packets dropped, count"
scalar scenarioPRJP1.node[32].app 	dropPk:sum(packetBytes) 	3072
attr interpolationmode  none
attr source  dropPk
attr title  "packets dropped, sum(packetBytes)"
scalar scenarioPRJP1.node[32].app 	outOfOrderPk:count 	0
attr interpolationmode  none
attr source  outOfOrderPk
attr title  "packets received out of order, count"
scalar scenarioPRJP1.node[32].app 	outOfOrderPk:sum(packetBytes) 	0
attr interpolationmode  none
attr source  outOfOrderPk
attr title  "packets received out of order, sum(packetBytes)"
scalar scenarioPRJP1.node[32].app 	rcvdPk:count 	87
attr interpolationmode  none
attr source  rcvdPk
attr title  "packets received, count"
scalar scenarioPRJP1.node[32].app 	rcvdPk:sum(packetBytes) 	44544
attr interpolationmode  none
attr source  rcvdPk
attr title  "packets received, sum(packetBytes)"
statistic scenarioPRJP1.node[32].app 	endToEndDelay:histogram
field count 87
field mean 5.1320998075012
field stddev 5.6754148269842
field sum 446.49268325261
field sqrsum 5061.5336911897
field min 0.000945025307
field max 19.947375389261
attr interpolationmode  none
attr source  messageAge(rcvdPk)
attr title  "delay, histogram"
attr unit  s
bin	-INF	0
bin	-9.97227015667	0
bin	-8.6425081324064	0
bin	-7.3127461081428	0
bin	-5.9829840838792	0
bin	-4.6532220596156	0
bin	-3.323460035352	0
bin	-1.9936980110884	0
bin	-0.6639359868248	30
bin	0.6658260374388	6
bin	1.9955880617024	7
bin	3.325350085966	8
bin	4.6551121102296	6
bin	5.9848741344932	6
bin	7.3146361587568	5
bin	8.6443981830204	1
bin	9.974160207284	4
bin	11.303922231548	2
bin	12.633684255811	3
bin	13.963446280075	0
bin	15.293208304338	3
bin	16.622970328602	4
bin	17.952732352866	0
bin	19.282494377129	2
bin	20.612256401393	0
bin	21.942018425656	0
bin	23.27178044992	0
bin	24.601542474184	0
bin	25.931304498447	0
bin	27.261066522711	0
bin	28.590828546974	0
bin	29.920590571238	0
scalar scenarioPRJP1.node[32].app 	sentPk:count 	621
attr interpolationmode  none
attr source  sentPk
attr title  "packets sent, count"
scalar scenarioPRJP1.node[32].app 	sentPk:sum(packetBytes) 	317952
attr interpolationmode  none
attr source  sentPk
attr title  "packets sent, sum(packetBytes)"
scalar scenarioPRJP1.node[32].udp 	droppedPkBadChecksum:count 	0
attr interpolationmode  none
attr title  "packets dropped (checksum error), count"
scalar scenarioPRJP1.node[32].udp 	droppedPkWrongPort:count 	0
attr interpolationmode  none
attr title  "packets dropped (wrong port), count"
scalar scenarioPRJP1.node[32].udp 	passedUpPk:count 	93
attr interpolationmode  none
attr title  "packets passed up, count"
scalar scenarioPRJP1.node[32].udp 	rcvdPk:count 	93
attr interpolationmode  none
attr source  rcvdPk
attr title  "packets received, count"
scalar scenarioPRJP1.node[32].udp 	rcvdPk:sum(packetBytes) 	48360
attr interpolationmode  none
attr source  rcvdPk
attr title  "packets received, sum(packetBytes)"
scalar scenarioPRJP1.node[32].udp 	sentPk:count 	621
attr interpolationmode  none
attr source  sentPk
attr title  "packets sent, count"
scalar scenarioPRJP1.node[32].udp 	sentPk:sum(packetBytes) 	322920
attr interpolationmode  none
attr source  sentPk
attr title  "packets sent, sum(packetBytes)"
scalar scenarioPRJP1.node[32].networkLayer.arp 	failedARPResolution:count 	1
attr title  "ARP failed resolutions, count"
scalar scenarioPRJP1.node[32].networkLayer.arp 	completedARPResolution:count 	167
attr title  "ARP completed resolutions, count"
scalar scenarioPRJP1.node[32].networkLayer.arp 	initiatedARPResolution:count 	21
attr title  "ARP initiated resolutions, count"
scalar scenarioPRJP1.node[32].networkLayer.arp 	sentReply:count 	19
attr title  "ARP replies sent, count"
scalar scenarioPRJP1.node[32].networkLayer.arp 	sentReq:count 	30
attr title  "ARP request sent, count"
scalar scenarioPRJP1.node[32].mobility 	startTime 	2.5
scalar scenarioPRJP1.node[32].mobility 	totalTime 	246.1
scalar scenarioPRJP1.node[32].mobility 	stopTime 	248.7
scalar scenarioPRJP1.node[32].mobility 	minSpeed 	2.4781036196069e-13
scalar scenarioPRJP1.node[32].mobility 	maxSpeed 	15.771843824624
scalar scenarioPRJP1.node[32].mobility 	totalDistance 	2233.6171596893
scalar scenarioPRJP1.node[32].mobility 	totalCO2Emission 	613.83368407867
scalar scenarioPRJP1.node[32].wlan.mgmt 	dataQueueLen:max 	32
attr interpolationmode  sample-hold
attr title  "data queue length, max"
scalar scenarioPRJP1.node[32].wlan.mgmt 	dataQueueLen:timeavg 	0
attr interpolationmode  sample-hold
attr title  "data queue length, timeavg"
scalar scenarioPRJP1.node[32].wlan.mgmt 	dropPkByQueue:count 	0
attr interpolationmode  none
attr source  dropPkByQueue
attr title  "packets dropped by queue, count"
scalar scenarioPRJP1.node[32].wlan.mgmt 	dropPkByQueue:sum(packetBytes) 	0
attr interpolationmode  none
attr source  dropPkByQueue
attr title  "packets dropped by queue, sum(packetBytes)"
scalar scenarioPRJP1.node[32].wlan.mac 	"number of received packets" 	1221
scalar scenarioPRJP1.node[32].wlan.mac 	"number of collisions" 	12665
scalar scenarioPRJP1.node[32].wlan.mac 	"number of internal collisions" 	0
scalar scenarioPRJP1.node[32].wlan.mac 	"number of retry for AC 0" 	3276
scalar scenarioPRJP1.node[32].wlan.mac 	"number of retry for AC 1" 	0
scalar scenarioPRJP1.node[32].wlan.mac 	"number of retry for AC 2" 	0
scalar scenarioPRJP1.node[32].wlan.mac 	"number of retry for AC 3" 	0
scalar scenarioPRJP1.node[32].wlan.mac 	"sent and received bits" 	5176152
scalar scenarioPRJP1.node[32].wlan.mac 	"sent packet within AC 0" 	254
scalar scenarioPRJP1.node[32].wlan.mac 	"sent packet within AC 1" 	1
scalar scenarioPRJP1.node[32].wlan.mac 	"sent packet within AC 2" 	0
scalar scenarioPRJP1.node[32].wlan.mac 	"sent packet within AC 3" 	0
scalar scenarioPRJP1.node[32].wlan.mac 	"sent in TXOP " 	0
scalar scenarioPRJP1.node[32].wlan.mac 	"sentWithoutRetry AC 0" 	213
scalar scenarioPRJP1.node[32].wlan.mac 	"sentWithoutRetry AC 1" 	1
scalar scenarioPRJP1.node[32].wlan.mac 	"sentWithoutRetry AC 2" 	0
scalar scenarioPRJP1.node[32].wlan.mac 	"sentWithoutRetry AC 3" 	0
scalar scenarioPRJP1.node[32].wlan.mac 	"numGivenUp AC 0" 	527
scalar scenarioPRJP1.node[32].wlan.mac 	"numGivenUp AC 1" 	0
scalar scenarioPRJP1.node[32].wlan.mac 	"numGivenUp AC 2" 	0
scalar scenarioPRJP1.node[32].wlan.mac 	"numGivenUp AC 3" 	0
scalar scenarioPRJP1.node[32].wlan.mac 	"numDropped AC 0" 	0
scalar scenarioPRJP1.node[32].wlan.mac 	"numDropped AC 1" 	0
scalar scenarioPRJP1.node[32].wlan.mac 	"numDropped AC 2" 	0
scalar scenarioPRJP1.node[32].wlan.mac 	"numDropped AC 3" 	0
scalar scenarioPRJP1.node[32].wlan.mac 	rcvdPkFromLL:count 	47413
attr interpolationmode  none
attr source  packetReceivedFromLower
attr title  "packets received from lower layer, count"
scalar scenarioPRJP1.node[32].wlan.mac 	rcvdPkFromLL:sum(packetBytes) 	14642277
attr interpolationmode  none
attr source  packetReceivedFromLower
attr title  "packets received from lower layer, sum(packetBytes)"
scalar scenarioPRJP1.node[32].wlan.mac 	sentDownPk:count 	8877
attr interpolationmode  none
attr source  packetSentToLower
attr title  "packets sent to lower layer, count"
scalar scenarioPRJP1.node[32].wlan.mac 	sentDownPk:sum(packetBytes) 	2778364
attr interpolationmode  none
attr source  packetSentToLower
attr title  "packets sent to lower layer, sum(packetBytes)"
scalar scenarioPRJP1.node[32].wlan.mac 	rcvdPkFromHL:count 	4380
attr interpolationmode  none
attr source  packetReceivedFromUpper
attr title  "packets received from higher layer, count"
scalar scenarioPRJP1.node[32].wlan.mac 	rcvdPkFromHL:sum(packetBytes) 	940040
attr interpolationmode  none
attr source  packetReceivedFromUpper
attr title  "packets received from higher layer, sum(packetBytes)"
scalar scenarioPRJP1.node[32].wlan.mac 	passedUpPk:count 	13723
attr interpolationmode  none
attr source  packetSentToUpper
attr title  "packets passed to higher layer, count"
scalar scenarioPRJP1.node[32].wlan.mac 	passedUpPk:sum(packetBytes) 	2238901
attr interpolationmode  none
attr source  packetSentToUpper
attr title  "packets passed to higher layer, sum(packetBytes)"
statistic scenarioPRJP1.node[32].wlan.radio 	radioChannel:histogram
field count 1
field mean 3
field stddev -nan
field sum 3
field sqrsum 9
field min 3
field max 3
attr interpolationmode  sample-hold
attr source  radioChannelChanged
attr title  "Radio channel, histogram"
bin	-INF	0
bin	2	0
bin	3	1
bin	4	0
scalar scenarioPRJP1.node[32].wlan.radio 	transmissionState:count 	35508
attr interpolationmode  sample-hold
attr source  transmissionStateChanged
attr title  "Radio transmission state, count"
scalar scenarioPRJP1.node[32].wlan.radio 	receptionState:count 	115692
attr interpolationmode  sample-hold
attr source  receptionStateChanged
attr title  "Radio reception state, count"
scalar scenarioPRJP1.node[32].wlan.radio 	radioMode:count 	17756
attr interpolationmode  sample-hold
attr source  radioModeChanged
attr title  "Radio mode, count"
statistic scenarioPRJP1.node[32].wlan.radio 	symbolErrorRate:histogram
field count 0
field mean -nan
field stddev -nan
field sum 0
field sqrsum 0
field min -nan
field max -nan
attr source  symbolErrorRate
attr title  "Symbol error rate, histogram"
bin	-INF	0
bin	-0.5	0
bin	-0.46666666666667	0
bin	-0.43333333333333	0
bin	-0.4	0
bin	-0.36666666666667	0
bin	-0.33333333333333	0
bin	-0.3	0
bin	-0.26666666666667	0
bin	-0.23333333333333	0
bin	-0.2	0
bin	-0.16666666666667	0
bin	-0.13333333333333	0
bin	-0.1	0
bin	-0.066666666666667	0
bin	-0.033333333333333	0
bin	0	0
bin	0.033333333333333	0
bin	0.066666666666667	0
bin	0.1	0
bin	0.13333333333333	0
bin	0.16666666666667	0
bin	0.2	0
bin	0.23333333333333	0
bin	0.26666666666667	0
bin	0.3	0
bin	0.33333333333333	0
bin	0.36666666666667	0
bin	0.4	0
bin	0.43333333333333	0
bin	0.46666666666667	0
bin	0.5	0
statistic scenarioPRJP1.node[32].wlan.radio 	bitErrorRate:histogram
field count 0
field mean -nan
field stddev -nan
field sum 0
field sqrsum 0
field min -nan
field max -nan
attr source  bitErrorRate
attr title  "Bit error rate, histogram"
bin	-INF	0
bin	-0.5	0
bin	-0.46666666666667	0
bin	-0.43333333333333	0
bin	-0.4	0
bin	-0.36666666666667	0
bin	-0.33333333333333	0
bin	-0.3	0
bin	-0.26666666666667	0
bin	-0.23333333333333	0
bin	-0.2	0
bin	-0.16666666666667	0
bin	-0.13333333333333	0
bin	-0.1	0
bin	-0.066666666666667	0
bin	-0.033333333333333	0
bin	0	0
bin	0.033333333333333	0
bin	0.066666666666667	0
bin	0.1	0
bin	0.13333333333333	0
bin	0.16666666666667	0
bin	0.2	0
bin	0.23333333333333	0
bin	0.26666666666667	0
bin	0.3	0
bin	0.33333333333333	0
bin	0.36666666666667	0
bin	0.4	0
bin	0.43333333333333	0
bin	0.46666666666667	0
bin	0.5	0
statistic scenarioPRJP1.node[32].wlan.radio 	packetErrorRate:histogram
field count 47413
field mean 0.2439409762473
field stddev 0.41889344183282
field sum 11565.973506813
field sqrsum 11140.87984903
field min 0
field max 1
attr source  packetErrorRate
attr title  "Packet error rate, histogram"
bin	-INF	0
bin	-0.5	0
bin	-0.46666666666667	0
bin	-0.43333333333333	0
bin	-0.4	0
bin	-0.36666666666667	0
bin	-0.33333333333333	0
bin	-0.3	0
bin	-0.26666666666667	0
bin	-0.23333333333333	0
bin	-0.2	0
bin	-0.16666666666667	0
bin	-0.13333333333333	0
bin	-0.1	0
bin	-0.066666666666667	0
bin	-0.033333333333333	0
bin	0	34109
bin	0.033333333333333	433
bin	0.066666666666667	268
bin	0.1	183
bin	0.13333333333333	150
bin	0.16666666666667	131
bin	0.2	106
bin	0.23333333333333	99
bin	0.26666666666667	91
bin	0.3	81
bin	0.33333333333333	70
bin	0.36666666666667	83
bin	0.4	70
bin	0.43333333333333	67
bin	0.46666666666667	57
bin	0.5	11415
statistic scenarioPRJP1.node[32].wlan.radio 	minSNIR:histogram
field count 47413
field mean 5315.4051498151
field stddev 50233.848369624
field sum 252019304.36818
field sqrsum 1.2098089932642e+14
field min 0.00016734056132595
field max 753239.71923443
attr source  minSNIR
attr title  "Min SNIR, histogram"
bin	-INF	0
bin	-15717.619405678	0
bin	-13620.705501185	0
bin	-11523.791596691	0
bin	-9426.877692198	0
bin	-7329.9637877046	0
bin	-5233.0498832113	0
bin	-3136.1359787179	0
bin	-1039.2220742245	41985
bin	1057.6918302689	1376
bin	3154.6057347623	835
bin	5251.5196392557	473
bin	7348.433543749	393
bin	9445.3474482424	266
bin	11542.261352736	196
bin	13639.175257229	148
bin	15736.089161723	122
bin	17833.003066216	125
bin	19929.916970709	107
bin	22026.830875203	102
bin	24123.744779696	69
bin	26220.65868419	80
bin	28317.572588683	109
bin	30414.486493176	47
bin	32511.40039767	57
bin	34608.314302163	57
bin	36705.228206656	35
bin	38802.14211115	40
bin	40899.056015643	31
bin	42995.969920137	18
bin	45092.88382463	27
bin	47189.797729123	715
scalar scenarioPRJP1.node[32].lo0.lo 	droppedPkBitError:count 	0
attr interpolationmode  none
attr source  dropPkBitError
attr title  "packets dropped/bit error, count"
scalar scenarioPRJP1.node[32].lo0.lo 	droppedPkBitError:sum(packetBytes) 	0
attr interpolationmode  none
attr source  dropPkBitError
attr title  "packets dropped/bit error, sum(packetBytes)"
scalar scenarioPRJP1.node[32].lo0.lo 	rcvdPkFromHL:count 	0
attr interpolationmode  none
attr source  packetReceivedFromUpper
attr title  "packets received from higher layer, count"
scalar scenarioPRJP1.node[32].lo0.lo 	rcvdPkFromHL:sum(packetBytes) 	0
attr interpolationmode  none
attr source  packetReceivedFromUpper
attr title  "packets received from higher layer, sum(packetBytes)"
scalar scenarioPRJP1.node[32].lo0.lo 	passedUpPk:count 	0
attr interpolationmode  none
attr source  packetSentToUpper
attr title  "packets passed to higher layer, count"
scalar scenarioPRJP1.node[32].lo0.lo 	passedUpPk:sum(packetBytes) 	0
attr interpolationmode  none
attr source  packetSentToUpper
attr title  "packets passed to higher layer, sum(packetBytes)"
scalar scenarioPRJP1.node[83].app 	"Total sent" 	720
scalar scenarioPRJP1.node[83].app 	"Total received" 	94
scalar scenarioPRJP1.node[83].app 	"Total deleted" 	26
scalar scenarioPRJP1.node[83].app 	dropPk:count 	26
attr interpolationmode  none
attr source  dropPk
attr title  "packets dropped, count"
scalar scenarioPRJP1.node[83].app 	dropPk:sum(packetBytes) 	13312
attr interpolationmode  none
attr source  dropPk
attr title  "packets dropped, sum(packetBytes)"
scalar scenarioPRJP1.node[83].app 	outOfOrderPk:count 	1
attr interpolationmode  none
attr source  outOfOrderPk
attr title  "packets received out of order, count"
scalar scenarioPRJP1.node[83].app 	outOfOrderPk:sum(packetBytes) 	512
attr interpolationmode  none
attr source  outOfOrderPk
attr title  "packets received out of order, sum(packetBytes)"
scalar scenarioPRJP1.node[83].app 	rcvdPk:count 	94
attr interpolationmode  none
attr source  rcvdPk
attr title  "packets received, count"
scalar scenarioPRJP1.node[83].app 	rcvdPk:sum(packetBytes) 	48128
attr interpolationmode  none
attr source  rcvdPk
attr title  "packets received, sum(packetBytes)"
statistic scenarioPRJP1.node[83].app 	endToEndDelay:histogram
field count 94
field mean 4.3246985682493
field stddev 6.095941191955
field sum 406.52166541543
field sqrsum 5214.0100728514
field min 0.000945011007
field max 19.930900106277
attr interpolationmode  none
attr source  messageAge(rcvdPk)
attr title  "delay, histogram"
attr unit  s
bin	-INF	0
bin	-9.964032536628	0
bin	-8.63536886361	0
bin	-7.306705190592	0
bin	-5.978041517574	0
bin	-4.649377844556	0
bin	-3.320714171538	0
bin	-1.99205049852	0
bin	-0.663386825502	48
bin	0.665276847516	9
bin	1.993940520534	3
bin	3.322604193552	1
bin	4.65126786657	3
bin	5.979931539588	5
bin	7.308595212606	3
bin	8.637258885624	4
bin	9.965922558642	3
bin	11.29458623166	2
bin	12.623249904678	1
bin	13.951913577696	4
bin	15.280577250714	0
bin	16.609240923732	4
bin	17.93790459675	1
bin	19.266568269768	3
bin	20.595231942786	0
bin	21.923895615804	0
bin	23.252559288822	0
bin	24.58122296184	0
bin	25.909886634858	0
bin	27.238550307876	0
bin	28.567213980894	0
bin	29.895877653912	0
scalar scenarioPRJP1.node[83].app 	sentPk:count 	720
attr interpolationmode  none
attr source  sentPk
attr title  "packets sent, count"
scalar scenarioPRJP1.node[83].app 	sentPk:sum(packetBytes) 	368640
attr interpolationmode  none
attr source  sentPk
attr title  "packets sent, sum(packetBytes)"
scalar scenarioPRJP1.node[83].udp 	droppedPkBadChecksum:count 	0
attr interpolationmode  none
attr title  "packets dropped (checksum error), count"
scalar scenarioPRJP1.node[83].udp 	droppedPkWrongPort:count 	0
attr interpolationmode  none
attr title  "packets dropped (wrong port), count"
scalar scenarioPRJP1.node[83].udp 	passedUpPk:count 	121
attr interpolationmode  none
attr title  "packets passed up, count"
scalar scenarioPRJP1.node[83].udp 	rcvdPk:count 	121
attr interpolationmode  none
attr source  rcvdPk
attr title  "packets received, count"
scalar scenarioPRJP1.node[83].udp 	rcvdPk:sum(packetBytes) 	62920
attr interpolationmode  none
attr source  rcvdPk
attr title  "packets received, sum(packetBytes)"
scalar scenarioPRJP1.node[83].udp 	sentPk:count 	720
attr interpolationmode  none
attr source  sentPk
attr title  "packets sent, count"
scalar scenarioPRJP1.node[83].udp 	sentPk:sum(packetBytes) 	374400
attr interpolationmode  none
attr source  sentPk
attr title  "packets sent, sum(packetBytes)"
scalar scenarioPRJP1.node[83].networkLayer.arp 	failedARPResolution:count 	3
attr title  "ARP failed resolutions, count"
scalar scenarioPRJP1.node[83].networkLayer.arp 	completedARPResolution:count 	249
attr title  "ARP completed resolutions, count"
scalar scenarioPRJP1.node[83].networkLayer.arp 	initiatedARPResolution:count 	26
attr title  "ARP initiated resolutions, count"
scalar scenarioPRJP1.node[83].networkLayer.arp 	sentReply:count 	21
attr title  "ARP replies sent, count"
scalar scenarioPRJP1.node[83].networkLayer.arp 	sentReq:count 	41
attr title  "ARP request sent, count"
scalar scenarioPRJP1.node[83].mobility 	startTime 	9.7
scalar scenarioPRJP1.node[83].mobility 	totalTime 	274.9
scalar scenarioPRJP1.node[83].mobility 	stopTime 	284.7
scalar scenarioPRJP1.node[83].mobility 	minSpeed 	2.4754336129458e-13
scalar scenarioPRJP1.node[83].mobility 	maxSpeed 	17.86657422402
scalar scenarioPRJP1.node[83].mobility 	totalDistance 	2204.3118357657
scalar scenarioPRJP1.node[83].mobility 	totalCO2Emission 	704.90815958874
scalar scenarioPRJP1.node[83].wlan.mgmt 	dataQueueLen:max 	19
attr interpolationmode  sample-hold
attr title  "data queue length, max"
scalar scenarioPRJP1.node[83].wlan.mgmt 	dataQueueLen:timeavg 	0
attr interpolationmode  sample-hold
attr title  "data queue length, timeavg"
scalar scenarioPRJP1.node[83].wlan.mgmt 	dropPkByQueue:count 	0
attr interpolationmode  none
attr source  dropPkByQueue
attr title  "packets dropped by queue, count"
scalar scenarioPRJP1.node[83].wlan.mgmt 	dropPkByQueue:sum(packetBytes) 	0
attr interpolationmode  none
attr source  dropPkByQueue
attr title  "packets dropped by queue, sum(packetBytes)"
scalar scenarioPRJP1.node[83].wlan.mac 	"number of received packets" 	1031
scalar scenarioPRJP1.node[83].wlan.mac 	"number of collisions" 	16684
scalar scenarioPRJP1.node[83].wlan.mac 	"number of internal collisions" 	0
scalar scenarioPRJP1.node[83].wlan.mac 	"number of retry for AC 0" 	2545
scalar scenarioPRJP1.node[83].wlan.mac 	"number of retry for AC 1" 	0
scalar scenarioPRJP1.node[83].wlan.mac 	"number of retry for AC 2" 	0
scalar scenarioPRJP1.node[83].wlan.mac 	"number of retry for AC 3" 	0
scalar scenarioPRJP1.node[83].wlan.mac 	"sent and received bits" 	5976368
scalar scenarioPRJP1.node[83].wlan.mac 	"sent packet within AC 0" 	283
scalar scenarioPRJP1.node[83].wlan.mac 	"sent packet within AC 1" 	0
scalar scenarioPRJP1.node[83].wlan.mac 	"sent packet within AC 2" 	0
scalar scenarioPRJP1.node[83].wlan.mac 	"sent packet within AC 3" 	0
scalar scenarioPRJP1.node[83].wlan.mac 	"sent in TXOP " 	0
scalar scenarioPRJP1.node[83].wlan.mac 	"sentWithoutRetry AC 0" 	218
scalar scenarioPRJP1.node[83].wlan.mac 	"sentWithoutRetry AC 1" 	0
scalar scenarioPRJP1.node[83].wlan.mac 	"sentWithoutRetry AC 2" 	0
scalar scenarioPRJP1.node[83].wlan.mac 	"sentWithoutRetry AC 3" 	0
scalar scenarioPRJP1.node[83].wlan.mac 	"numGivenUp AC 0" 	402
scalar scenarioPRJP1.node[83].wlan.mac 	"numGivenUp AC 1" 	0
scalar scenarioPRJP1.node[83].wlan.mac 	"numGivenUp AC 2" 	0
scalar scenarioPRJP1.node[83].wlan.mac 	"numGivenUp AC 3" 	0
scalar scenarioPRJP1.node[83].wlan.mac 	"numDropped AC 0" 	0
scalar scenarioPRJP1.node[83].wlan.mac 	"numDropped AC 1" 	0
scalar scenarioPRJP1.node[83].wlan.mac 	"numDropped AC 2" 	0
scalar scenarioPRJP1.node[83].wlan.mac 	"numDropped AC 3" 	0
scalar scenarioPRJP1.node[83].wlan.mac 	rcvdPkFromLL:count 	65696
attr interpolationmode  none
attr source  packetReceivedFromLower
attr title  "packets received from lower layer, count"
scalar scenarioPRJP1.node[83].wlan.mac 	rcvdPkFromLL:sum(packetBytes) 	20359696
attr interpolationmode  none
attr source  packetReceivedFromLower
attr title  "packets received from lower layer, sum(packetBytes)"
scalar scenarioPRJP1.node[83].wlan.mac 	sentDownPk:count 	8564
attr interpolationmode  none
attr source  packetSentToLower
attr title  "packets sent to lower layer, count"
scalar scenarioPRJP1.node[83].wlan.mac 	sentDownPk:sum(packetBytes) 	2398255
attr interpolationmode  none
attr source  packetSentToLower
attr title  "packets sent to lower layer, sum(packetBytes)"
scalar scenarioPRJP1.node[83].wlan.mac 	rcvdPkFromHL:count 	4988
attr interpolationmode  none
attr source  packetReceivedFromUpper
attr title  "packets received from higher layer, count"
scalar scenarioPRJP1.node[83].wlan.mac 	rcvdPkFromHL:sum(packetBytes) 	969927
attr interpolationmode  none
attr source  packetReceivedFromUpper
attr title  "packets received from higher layer, sum(packetBytes)"
scalar scenarioPRJP1.node[83].wlan.mac 	passedUpPk:count 	21777
attr interpolationmode  none
attr source  packetSentToUpper
attr title  "packets passed to higher layer, count"
scalar scenarioPRJP1.node[83].wlan.mac 	passedUpPk:sum(packetBytes) 	3225727
attr interpolationmode  none
attr source  packetSentToUpper
attr title  "packets passed to higher layer, sum(packetBytes)"
statistic scenarioPRJP1.node[83].wlan.radio 	radioChannel:histogram
field count 1
field mean 3
field stddev -nan
field sum 3
field sqrsum 9
field min 3
field max 3
attr interpolationmode  sample-hold
attr source  radioChannelChanged
attr title  "Radio channel, histogram"
bin	-INF	0
bin	2	0
bin	3	1
bin	4	0
scalar scenarioPRJP1.node[83].wlan.radio 	transmissionState:count 	34256
attr interpolationmode  sample-hold
[...]
scalar scenarioPRJP1.node[79].wlan.mac 	passedUpPk:count 	49754
attr interpolationmode  none
attr source  packetSentToUpper
attr title  "packets passed to higher layer, count"
scalar scenarioPRJP1.node[79].wlan.mac 	passedUpPk:sum(packetBytes) 	7674394
attr interpolationmode  none
attr source  packetSentToUpper
attr title  "packets passed to higher layer, sum(packetBytes)"
statistic scenarioPRJP1.node[79].wlan.radio 	radioChannel:histogram
field count 1
field mean 3
field stddev -nan
field sum 3
field sqrsum 9
field min 3
field max 3
attr interpolationmode  sample-hold
attr source  radioChannelChanged
attr title  "Radio channel, histogram"
bin	-INF	0
bin	2	0
bin	3	1
bin	4	0
scalar scenarioPRJP1.node[79].wlan.radio 	transmissionState:count 	130084
attr interpolationmode  sample-hold
attr source  transmissionStateChanged
attr title  "Radio transmission state, count"
scalar scenarioPRJP1.node[79].wlan.radio 	receptionState:count 	404874
attr interpolationmode  sample-hold
attr source  receptionStateChanged
attr title  "Radio reception state, count"
scalar scenarioPRJP1.node[79].wlan.radio 	radioMode:count 	65044
attr interpolationmode  sample-hold
attr source  radioModeChanged
attr title  "Radio mode, count"
statistic scenarioPRJP1.node[79].wlan.radio 	symbolErrorRate:histogram
field count 0
field mean -nan
field stddev -nan
field sum 0
field sqrsum 0
field min -nan
field max -nan
attr source  symbolErrorRate
attr title  "Symbol error rate, histogram"
bin	-INF	0
bin	-0.5	0
bin	-0.46666666666667	0
bin	-0.43333333333333	0
bin	-0.4	0
bin	-0.36666666666667	0
bin	-0.33333333333333	0
bin	-0.3	0
bin	-0.26666666666667	0
bin	-0.23333333333333	0
bin	-0.2	0
bin	-0.16666666666667	0
bin	-0.13333333333333	0
bin	-0.1	0
bin	-0.066666666666667	0
bin	-0.033333333333333	0
bin	0	0
bin	0.033333333333333	0
bin	0.066666666666667	0
bin	0.1	0
bin	0.13333333333333	0
bin	0.16666666666667	0
bin	0.2	0
bin	0.23333333333333	0
bin	0.26666666666667	0
bin	0.3	0
bin	0.33333333333333	0
bin	0.36666666666667	0
bin	0.4	0
bin	0.43333333333333	0
bin	0.46666666666667	0
bin	0.5	0
statistic scenarioPRJP1.node[79].wlan.radio 	bitErrorRate:histogram
field count 0
field mean -nan
field stddev -nan
field sum 0
field sqrsum 0
field min -nan
field max -nan
attr source  bitErrorRate
attr title  "Bit error rate, histogram"
bin	-INF	0
bin	-0.5	0
bin	-0.46666666666667	0
bin	-0.43333333333333	0
bin	-0.4	0
bin	-0.36666666666667	0
bin	-0.33333333333333	0
bin	-0.3	0
bin	-0.26666666666667	0
bin	-0.23333333333333	0
bin	-0.2	0
bin	-0.16666666666667	0
bin	-0.13333333333333	0
bin	-0.1	0
bin	-0.066666666666667	0
bin	-0.033333333333333	0
bin	0	0
bin	0.033333333333333	0
bin	0.066666666666667	0
bin	0.1	0
bin	0.13333333333333	0
bin	0.16666666666667	0
bin	0.2	0
bin	0.23333333333333	0
bin	0.26666666666667	0
bin	0.3	0
bin	0.33333333333333	0
bin	0.36666666666667	0
bin	0.4	0
bin	0.43333333333333	0
bin	0.46666666666667	0
bin	0.5	0
statistic scenarioPRJP1.node[79].wlan.radio 	packetErrorRate:histogram
field count 160835
field mean 0.25884578907172
field stddev 0.42672453943805
field sum 41631.46248535
field sqrsum 40063.008222962
field min 0
field max 1
attr source  packetErrorRate
attr title  "Packet error rate, histogram"
bin	-INF	0
bin	-0.5	0
bin	-0.43333333333333	0
bin	-0.36666666666667	0
bin	-0.3	0
bin	-0.23333333333333	0
bin	-0.16666666666667	0
bin	-0.1	0
bin	-0.033333333333333	112893
bin	0.033333333333333	2545
bin	0.1	1188
bin	0.16666666666667	833
bin	0.23333333333333	669
bin	0.3	584
bin	0.36666666666667	518
bin	0.43333333333333	450
bin	0.5	454
bin	0.56666666666667	411
bin	0.63333333333333	418
bin	0.7	430
bin	0.76666666666667	445
bin	0.83333333333333	556
bin	0.9	851
bin	0.96666666666667	37590
bin	1.0333333333333	0
bin	1.1	0
bin	1.1666666666667	0
bin	1.2333333333333	0
bin	1.3	0
bin	1.3666666666667	0
bin	1.4333333333333	0
bin	1.5	0
statistic scenarioPRJP1.node[79].wlan.radio 	minSNIR:histogram
field count 160835
field mean 1518.5130596217
field stddev 20694.636216027
field sum 244230047.94426
field sqrsum 69250916900954
field min 0.00018749430316616
field max 753239.71923443
attr source  minSNIR
attr title  "Min SNIR, histogram"
bin	-INF	0
bin	-81544.790983683	0
bin	-70672.008698616	0
bin	-59799.226413549	0
bin	-48926.444128483	0
bin	-38053.661843416	0
bin	-27180.879558349	0
bin	-16308.097273282	0
bin	-5435.3149882154	156397
bin	5437.4672968514	2507
bin	16310.249581918	873
bin	27183.031866985	266
bin	38055.814152052	106
bin	48928.596437119	38
bin	59801.378722185	51
bin	70674.161007252	25
bin	81546.943292319	41
bin	92419.725577386	25
bin	103292.50786245	23
bin	114165.29014752	6
bin	125038.07243259	19
bin	135910.85471765	47
bin	146783.63700272	49
bin	157656.41928779	16
bin	168529.20157285	148
bin	179401.98385792	23
bin	190274.76614299	4
bin	201147.54842805	0
bin	212020.33071312	14
bin	222893.11299819	1
bin	233765.89528325	0
bin	244638.67756832	156
scalar scenarioPRJP1.node[79].lo0.lo 	droppedPkBitError:count 	0
attr interpolationmode  none
attr source  dropPkBitError
attr title  "packets dropped/bit error, count"
scalar scenarioPRJP1.node[79].lo0.lo 	droppedPkBitError:sum(packetBytes) 	0
attr interpolationmode  none
attr source  dropPkBitError
attr title  "packets dropped/bit error, sum(packetBytes)"
scalar scenarioPRJP1.node[79].lo0.lo 	rcvdPkFromHL:count 	0
attr interpolationmode  none
attr source  packetReceivedFromUpper
attr title  "packets received from higher layer, count"
scalar scenarioPRJP1.node[79].lo0.lo 	rcvdPkFromHL:sum(packetBytes) 	0
attr interpolationmode  none
attr source  packetReceivedFromUpper
attr title  "packets received from higher layer, sum(packetBytes)"
scalar scenarioPRJP1.node[79].lo0.lo 	passedUpPk:count 	0
attr interpolationmode  none
attr source  packetSentToUpper
attr title  "packets passed to higher layer, count"
scalar scenarioPRJP1.node[79].lo0.lo 	passedUpPk:sum(packetBytes) 	0
attr interpolationmode  none
attr source  packetSentToUpper
attr title  "packets passed to higher layer, sum(packetBytes)"
scalar scenarioPRJP1.node[96].app 	"Total sent" 	2617
scalar scenarioPRJP1.node[96].app 	"Total received" 	393
scalar scenarioPRJP1.node[96].app 	"Total deleted" 	66
scalar scenarioPRJP1.node[96].app 	dropPk:count 	66
attr interpolationmode  none
attr source  dropPk
attr title  "packets dropped, count"
scalar scenarioPRJP1.node[96].app 	dropPk:sum(packetBytes) 	33792
attr interpolationmode  none
attr source  dropPk
attr title  "packets dropped, sum(packetBytes)"
scalar scenarioPRJP1.node[96].app 	outOfOrderPk:count 	0
attr interpolationmode  none
attr source  outOfOrderPk
attr title  "packets received out of order, count"
scalar scenarioPRJP1.node[96].app 	outOfOrderPk:sum(packetBytes) 	0
attr interpolationmode  none
attr source  outOfOrderPk
attr title  "packets received out of order, sum(packetBytes)"
scalar scenarioPRJP1.node[96].app 	rcvdPk:count 	393
attr interpolationmode  none
attr source  rcvdPk
attr title  "packets received, count"
scalar scenarioPRJP1.node[96].app 	rcvdPk:sum(packetBytes) 	201216
attr interpolationmode  none
attr source  rcvdPk
attr title  "packets received, sum(packetBytes)"
statistic scenarioPRJP1.node[96].app 	endToEndDelay:histogram
field count 393
field mean 4.5528675094001
field stddev 5.554128987205
field sum 1789.2769311943
field sqrsum 20238.893537506
field min 0.0009451694
field max 19.863849682096
attr interpolationmode  none
attr source  messageAge(rcvdPk)
attr title  "delay, histogram"
attr unit  s
bin	-INF	0
bin	-9.896733946291	0
bin	-8.5770382014003	0
bin	-7.2573424565097	0
bin	-5.937646711619	0
bin	-4.6179509667283	0
bin	-3.2982552218377	0
bin	-1.978559476947	0
bin	-0.65886373205633	173
bin	0.66083201283433	27
bin	1.980527757725	22
bin	3.3002235026157	15
bin	4.6199192475063	23
bin	5.939614992397	24
bin	7.2593107372877	18
bin	8.5790064821783	16
bin	9.898702227069	19
bin	11.21839797196	13
bin	12.53809371685	5
bin	13.857789461741	8
bin	15.177485206632	9
bin	16.497180951522	7
bin	17.816876696413	11
bin	19.136572441304	3
bin	20.456268186194	0
bin	21.775963931085	0
bin	23.095659675976	0
bin	24.415355420866	0
bin	25.735051165757	0
bin	27.054746910648	0
bin	28.374442655538	0
bin	29.694138400429	0
scalar scenarioPRJP1.node[96].app 	sentPk:count 	2617
attr interpolationmode  none
attr source  sentPk
attr title  "packets sent, count"
scalar scenarioPRJP1.node[96].app 	sentPk:sum(packetBytes) 	1339904
attr interpolationmode  none
attr source  sentPk
attr title  "packets sent, sum(packetBytes)"
scalar scenarioPRJP1.node[96].udp 	droppedPkBadChecksum:count 	0
attr interpolationmode  none
attr title  "packets dropped (checksum error), count"
scalar scenarioPRJP1.node[96].udp 	droppedPkWrongPort:count 	0
attr interpolationmode  none
attr title  "packets dropped (wrong port), count"
scalar scenarioPRJP1.node[96].udp 	passedUpPk:count 	459
attr interpolationmode  none
attr title  "packets passed up, count"
scalar scenarioPRJP1.node[96].udp 	rcvdPk:count 	459
attr interpolationmode  none
attr source  rcvdPk
attr title  "packets received, count"
scalar scenarioPRJP1.node[96].udp 	rcvdPk:sum(packetBytes) 	238680
attr interpolationmode  none
attr source  rcvdPk
attr title  "packets received, sum(packetBytes)"
scalar scenarioPRJP1.node[96].udp 	sentPk:count 	2617
attr interpolationmode  none
attr source  sentPk
attr title  "packets sent, count"
scalar scenarioPRJP1.node[96].udp 	sentPk:sum(packetBytes) 	1360840
attr interpolationmode  none
attr source  sentPk
attr title  "packets sent, sum(packetBytes)"
scalar scenarioPRJP1.node[96].networkLayer.arp 	failedARPResolution:count 	9
attr title  "ARP failed resolutions, count"
scalar scenarioPRJP1.node[96].networkLayer.arp 	completedARPResolution:count 	652
attr title  "ARP completed resolutions, count"
scalar scenarioPRJP1.node[96].networkLayer.arp 	initiatedARPResolution:count 	101
attr title  "ARP initiated resolutions, count"
scalar scenarioPRJP1.node[96].networkLayer.arp 	sentReply:count 	71
attr title  "ARP replies sent, count"
scalar scenarioPRJP1.node[96].networkLayer.arp 	sentReq:count 	163
attr title  "ARP request sent, count"
scalar scenarioPRJP1.node[96].mobility 	startTime 	9.8
scalar scenarioPRJP1.node[96].mobility 	totalTime 	940.2
scalar scenarioPRJP1.node[96].mobility 	stopTime 	950
scalar scenarioPRJP1.node[96].mobility 	minSpeed 	2.4754835980944e-13
scalar scenarioPRJP1.node[96].mobility 	maxSpeed 	17.492571289502
scalar scenarioPRJP1.node[96].mobility 	totalDistance 	10056.49777369
scalar scenarioPRJP1.node[96].mobility 	totalCO2Emission 	2561.2882442779
scalar scenarioPRJP1.node[96].wlan.mgmt 	dataQueueLen:max 	27
attr interpolationmode  sample-hold
attr title  "data queue length, max"
scalar scenarioPRJP1.node[96].wlan.mgmt 	dataQueueLen:timeavg 	0
attr interpolationmode  sample-hold
attr title  "data queue length, timeavg"
scalar scenarioPRJP1.node[96].wlan.mgmt 	dropPkByQueue:count 	0
attr interpolationmode  none
attr source  dropPkByQueue
attr title  "packets dropped by queue, count"
scalar scenarioPRJP1.node[96].wlan.mgmt 	dropPkByQueue:sum(packetBytes) 	0
attr interpolationmode  none
attr source  dropPkByQueue
attr title  "packets dropped by queue, sum(packetBytes)"
scalar scenarioPRJP1.node[96].wlan.mac 	"number of received packets" 	6112
scalar scenarioPRJP1.node[96].wlan.mac 	"number of collisions" 	55080
scalar scenarioPRJP1.node[96].wlan.mac 	"number of internal collisions" 	0
scalar scenarioPRJP1.node[96].wlan.mac 	"number of retry for AC 0" 	13453
scalar scenarioPRJP1.node[96].wlan.mac 	"number of retry for AC 1" 	3
scalar scenarioPRJP1.node[96].wlan.mac 	"number of retry for AC 2" 	0
scalar scenarioPRJP1.node[96].wlan.mac 	"number of retry for AC 3" 	0
scalar scenarioPRJP1.node[96].wlan.mac 	"sent and received bits" 	21632536
scalar scenarioPRJP1.node[96].wlan.mac 	"sent packet within AC 0" 	1055
scalar scenarioPRJP1.node[96].wlan.mac 	"sent packet within AC 1" 	1
scalar scenarioPRJP1.node[96].wlan.mac 	"sent packet within AC 2" 	0
scalar scenarioPRJP1.node[96].wlan.mac 	"sent packet within AC 3" 	0
scalar scenarioPRJP1.node[96].wlan.mac 	"sent in TXOP " 	0
scalar scenarioPRJP1.node[96].wlan.mac 	"sentWithoutRetry AC 0" 	816
scalar scenarioPRJP1.node[96].wlan.mac 	"sentWithoutRetry AC 1" 	0
scalar scenarioPRJP1.node[96].wlan.mac 	"sentWithoutRetry AC 2" 	0
scalar scenarioPRJP1.node[96].wlan.mac 	"sentWithoutRetry AC 3" 	0
scalar scenarioPRJP1.node[96].wlan.mac 	"numGivenUp AC 0" 	2131
scalar scenarioPRJP1.node[96].wlan.mac 	"numGivenUp AC 1" 	0
scalar scenarioPRJP1.node[96].wlan.mac 	"numGivenUp AC 2" 	0
scalar scenarioPRJP1.node[96].wlan.mac 	"numGivenUp AC 3" 	0
scalar scenarioPRJP1.node[96].wlan.mac 	"numDropped AC 0" 	0
scalar scenarioPRJP1.node[96].wlan.mac 	"numDropped AC 1" 	0
scalar scenarioPRJP1.node[96].wlan.mac 	"numDropped AC 2" 	0
scalar scenarioPRJP1.node[96].wlan.mac 	"numDropped AC 3" 	0
scalar scenarioPRJP1.node[96].wlan.mac 	rcvdPkFromLL:count 	178758
attr interpolationmode  none
attr source  packetReceivedFromLower
attr title  "packets received from lower layer, count"
scalar scenarioPRJP1.node[96].wlan.mac 	rcvdPkFromLL:sum(packetBytes) 	54781507
attr interpolationmode  none
attr source  packetReceivedFromLower
attr title  "packets received from lower layer, sum(packetBytes)"
scalar scenarioPRJP1.node[96].wlan.mac 	sentDownPk:count 	37448
attr interpolationmode  none
attr source  packetSentToLower
attr title  "packets sent to lower layer, count"
scalar scenarioPRJP1.node[96].wlan.mac 	sentDownPk:sum(packetBytes) 	11482860
attr interpolationmode  none
attr source  packetSentToLower
attr title  "packets sent to lower layer, sum(packetBytes)"
scalar scenarioPRJP1.node[96].wlan.mac 	rcvdPkFromHL:count 	17880
attr interpolationmode  none
attr source  packetReceivedFromUpper
attr title  "packets received from higher layer, count"
scalar scenarioPRJP1.node[96].wlan.mac 	rcvdPkFromHL:sum(packetBytes) 	3891675
attr interpolationmode  none
attr source  packetReceivedFromUpper
attr title  "packets received from higher layer, sum(packetBytes)"
scalar scenarioPRJP1.node[96].wlan.mac 	passedUpPk:count 	51107
attr interpolationmode  none
attr source  packetSentToUpper
attr title  "packets passed to higher layer, count"
scalar scenarioPRJP1.node[96].wlan.mac 	passedUpPk:sum(packetBytes) 	8514473
attr interpolationmode  none
attr source  packetSentToUpper
attr title  "packets passed to higher layer, sum(packetBytes)"
statistic scenarioPRJP1.node[96].wlan.radio 	radioChannel:histogram
field count 1
field mean 3
field stddev -nan
field sum 3
field sqrsum 9
field min 3
field max 3
attr interpolationmode  sample-hold
attr source  radioChannelChanged
attr title  "Radio channel, histogram"
bin	-INF	0
bin	2	0
bin	3	1
bin	4	0
scalar scenarioPRJP1.node[96].wlan.radio 	transmissionState:count 	149792
attr interpolationmode  sample-hold
attr source  transmissionStateChanged
attr title  "Radio transmission state, count"
scalar scenarioPRJP1.node[96].wlan.radio 	receptionState:count 	449258
attr interpolationmode  sample-hold
attr source  receptionStateChanged
attr title  "Radio reception state, count"
scalar scenarioPRJP1.node[96].wlan.radio 	radioMode:count 	74898
attr interpolationmode  sample-hold
attr source  radioModeChanged
attr title  "Radio mode, count"
statistic scenarioPRJP1.node[96].wlan.radio 	symbolErrorRate:histogram
field count 0
field mean -nan
field stddev -nan
field sum 0
field sqrsum 0
field min -nan
field max -nan
attr source  symbolErrorRate
attr title  "Symbol error rate, histogram"
bin	-INF	0
bin	-0.5	0
bin	-0.46666666666667	0
bin	-0.43333333333333	0
bin	-0.4	0
bin	-0.36666666666667	0
bin	-0.33333333333333	0
bin	-0.3	0
bin	-0.26666666666667	0
bin	-0.23333333333333	0
bin	-0.2	0
bin	-0.16666666666667	0
bin	-0.13333333333333	0
bin	-0.1	0
bin	-0.066666666666667	0
bin	-0.033333333333333	0
bin	0	0
bin	0.033333333333333	0
bin	0.066666666666667	0
bin	0.1	0
bin	0.13333333333333	0
bin	0.16666666666667	0
bin	0.2	0
bin	0.23333333333333	0
bin	0.26666666666667	0
bin	0.3	0
bin	0.33333333333333	0
bin	0.36666666666667	0
bin	0.4	0
bin	0.43333333333333	0
bin	0.46666666666667	0
bin	0.5	0
statistic scenarioPRJP1.node[96].wlan.radio 	bitErrorRate:histogram
field count 0
field mean -nan
field stddev -nan
field sum 0
field sqrsum 0
field min -nan
field max -nan
attr source  bitErrorRate
attr title  "Bit error rate, histogram"
bin	-INF	0
bin	-0.5	0
bin	-0.46666666666667	0
bin	-0.43333333333333	0
bin	-0.4	0
bin	-0.36666666666667	0
bin	-0.33333333333333	0
bin	-0.3	0
bin	-0.26666666666667	0
bin	-0.23333333333333	0
bin	-0.2	0
bin	-0.16666666666667	0
bin	-0.13333333333333	0
bin	-0.1	0
bin	-0.066666666666667	0
bin	-0.033333333333333	0
bin	0	0
bin	0.033333333333333	0
bin	0.066666666666667	0
bin	0.1	0
bin	0.13333333333333	0
bin	0.16666666666667	0
bin	0.2	0
bin	0.23333333333333	0
bin	0.26666666666667	0
bin	0.3	0
bin	0.33333333333333	0
bin	0.36666666666667	0
bin	0.4	0
bin	0.43333333333333	0
bin	0.46666666666667	0
bin	0.5	0
statistic scenarioPRJP1.node[96].wlan.radio 	packetErrorRate:histogram
field count 178758
field mean 0.27793497216945
field stddev 0.43633822317609
field sum 49683.099755067
field sqrsum 47842.40297958
field min 0
field max 1
attr source  packetErrorRate
attr title  "Packet error rate, histogram"
bin	-INF	0
bin	-0.5	0
bin	-0.43333333333333	0
bin	-0.36666666666667	0
bin	-0.3	0
bin	-0.23333333333333	0
bin	-0.16666666666667	0
bin	-0.1	0
bin	-0.033333333333333	121594
bin	0.033333333333333	2982
bin	0.1	1478
bin	0.16666666666667	1014
bin	0.23333333333333	792
bin	0.3	673
bin	0.36666666666667	598
bin	0.43333333333333	499
bin	0.5	526
bin	0.56666666666667	498
bin	0.63333333333333	459
bin	0.7	512
bin	0.76666666666667	537
bin	0.83333333333333	652
bin	0.9	994
bin	0.96666666666667	44950
bin	1.0333333333333	0
bin	1.1	0
bin	1.1666666666667	0
bin	1.2333333333333	0
bin	1.3	0
bin	1.3666666666667	0
bin	1.4333333333333	0
bin	1.5	0
statistic scenarioPRJP1.node[96].wlan.radio 	minSNIR:histogram
field count 178758
field mean 1236.8178370773
field stddev 18395.104981468
field sum 221091082.92026
field sqrsum 60761222905348
field min 0.00023323243053048
field max 1312813.3737843
attr source  minSNIR
attr title  "Min SNIR, histogram"
bin	-INF	0
bin	-15844.337242374	0
bin	-13731.747294377	0
bin	-11619.157346379	0
bin	-9506.567398381	0
bin	-7393.9774503832	0
bin	-5281.3875023854	0
bin	-3168.7975543876	0
bin	-1056.2076063898	169040
bin	1056.382341608	4293
bin	3168.9722896058	1568
bin	5281.5622376036	722
bin	7394.1521856014	464
bin	9506.7421335992	426
bin	11619.332081597	251
bin	13731.922029595	182
bin	15844.511977593	159
bin	17957.10192559	78
bin	20069.691873588	138
bin	22182.281821586	82
bin	24294.871769584	83
bin	26407.461717582	34
bin	28520.051665579	40
bin	30632.641613577	47
bin	32745.231561575	40
bin	34857.821509573	17
bin	36970.411457571	94
bin	39083.001405568	38
bin	41195.591353566	53
bin	43308.181301564	50
bin	45420.771249562	34
bin	47533.36119756	825
scalar scenarioPRJP1.node[96].lo0.lo 	droppedPkBitError:count 	0
attr interpolationmode  none
attr source  dropPkBitError
attr title  "packets dropped/bit error, count"
scalar scenarioPRJP1.node[96].lo0.lo 	droppedPkBitError:sum(packetBytes) 	0
attr interpolationmode  none
attr source  dropPkBitError
attr title  "packets dropped/bit error, sum(packetBytes)"
scalar scenarioPRJP1.node[96].lo0.lo 	rcvdPkFromHL:count 	0
attr interpolationmode  none
attr source  packetReceivedFromUpper
attr title  "packets received from higher layer, count"
scalar scenarioPRJP1.node[96].lo0.lo 	rcvdPkFromHL:sum(packetBytes) 	0
attr interpolationmode  none
attr source  packetReceivedFromUpper
attr title  "packets received from higher layer, sum(packetBytes)"
scalar scenarioPRJP1.node[96].lo0.lo 	passedUpPk:count 	0
attr interpolationmode  none
attr source  packetSentToUpper
attr title  "packets passed to higher layer, count"
scalar scenarioPRJP1.node[96].lo0.lo 	passedUpPk:sum(packetBytes) 	0
attr interpolationmode  none
attr source  packetSentToUpper
attr title  "packets passed to higher layer, sum(packetBytes)"
