version 2
run OLSR-ETX-LNS-25n-0-20150714-21:37:16-12352
attr configname OLSR-ETX-LNS-25n
attr datetime 20150714-21:37:16
attr experiment OLSR-ETX-LNS-25n
attr inifile omnetpp.ini
attr iterationvars ""
attr iterationvars2 $repetition=0
attr measurement ""
attr network Prj_Part1_propag.scenarioPRJP1
attr processid 12352
attr repetition 0
attr replication #0
attr resultdir results
attr runnumber 0
attr seedset 0

scalar scenarioPRJP1.radioMedium.propagation 	"Arrival computation count" 	6500685
scalar scenarioPRJP1.radioMedium 	"transmission count" 	270874
scalar scenarioPRJP1.radioMedium 	"radio frame send count" 	6500666
scalar scenarioPRJP1.radioMedium 	"reception computation count" 	6447878
scalar scenarioPRJP1.radioMedium 	"interference computation count" 	17504353
scalar scenarioPRJP1.radioMedium 	"reception decision computation count" 	639124
scalar scenarioPRJP1.radioMedium 	"listening decision computation count" 	10699991
scalar scenarioPRJP1.radioMedium 	"reception cache hit" 	83.028796502813
attr unit  %
scalar scenarioPRJP1.radioMedium 	"interference cache hit" 	50
attr unit  %
scalar scenarioPRJP1.radioMedium 	"noise cache hit" 	0
attr unit  %
scalar scenarioPRJP1.radioMedium 	"snir cache hit" 	0
attr unit  %
scalar scenarioPRJP1.radioMedium 	"reception decision cache hit" 	0
attr unit  %
scalar scenarioPRJP1.node[0].app 	"Total sent" 	2611
scalar scenarioPRJP1.node[0].app 	"Total received" 	285
scalar scenarioPRJP1.node[0].app 	"Total deleted" 	0
scalar scenarioPRJP1.node[0].app 	dropPk:count 	0
attr interpolationmode  none
attr source  dropPk
attr title  "packets dropped, count"
scalar scenarioPRJP1.node[0].app 	dropPk:sum(packetBytes) 	0
attr interpolationmode  none
attr source  dropPk
attr title  "packets dropped, sum(packetBytes)"
scalar scenarioPRJP1.node[0].app 	outOfOrderPk:count 	1
attr interpolationmode  none
attr source  outOfOrderPk
attr title  "packets received out of order, count"
scalar scenarioPRJP1.node[0].app 	outOfOrderPk:sum(packetBytes) 	512
attr interpolationmode  none
attr source  outOfOrderPk
attr title  "packets received out of order, sum(packetBytes)"
scalar scenarioPRJP1.node[0].app 	rcvdPk:count 	285
attr interpolationmode  none
attr source  rcvdPk
attr title  "packets received, count"
scalar scenarioPRJP1.node[0].app 	rcvdPk:sum(packetBytes) 	145920
attr interpolationmode  none
attr source  rcvdPk
attr title  "packets received, sum(packetBytes)"
statistic scenarioPRJP1.node[0].app 	endToEndDelay:histogram
field count 285
field mean 0.13033598886007
field stddev 0.40853882530947
field sum 37.145756825121
field sqrsum 52.242156934768
field min 0.000945014708
field max 2.536357603184
attr interpolationmode  none
attr source  messageAge(rcvdPk)
attr title  "delay, histogram"
attr unit  s
bin	-INF	0
bin	-1.266683209528	0
bin	-1.0976591734075	0
bin	-0.92863513728693	0
bin	-0.7596111011664	0
bin	-0.59058706504587	0
bin	-0.42156302892533	0
bin	-0.2525389928048	0
bin	-0.083514956684267	258
bin	0.085509079436267	1
bin	0.2545331155568	4
bin	0.42355715167733	1
bin	0.59258118779787	0
bin	0.7616052239184	0
bin	0.93062926003893	10
bin	1.0996532961595	0
bin	1.26867733228	2
bin	1.4377013684005	0
bin	1.6067254045211	1
bin	1.7757494406416	1
bin	1.9447734767621	6
bin	2.1137975128827	0
bin	2.2828215490032	0
bin	2.4518455851237	1
bin	2.6208696212443	0
bin	2.7898936573648	0
bin	2.9589176934853	0
bin	3.1279417296059	0
bin	3.2969657657264	0
bin	3.4659898018469	0
bin	3.6350138379675	0
bin	3.804037874088	0
scalar scenarioPRJP1.node[0].app 	sentPk:count 	2611
attr interpolationmode  none
attr source  sentPk
attr title  "packets sent, count"
scalar scenarioPRJP1.node[0].app 	sentPk:sum(packetBytes) 	1336832
attr interpolationmode  none
attr source  sentPk
attr title  "packets sent, sum(packetBytes)"
scalar scenarioPRJP1.node[0].udp 	droppedPkBadChecksum:count 	0
attr interpolationmode  none
attr title  "packets dropped (checksum error), count"
scalar scenarioPRJP1.node[0].udp 	droppedPkWrongPort:count 	0
attr interpolationmode  none
attr title  "packets dropped (wrong port), count"
scalar scenarioPRJP1.node[0].udp 	passedUpPk:count 	286
attr interpolationmode  none
attr title  "packets passed up, count"
scalar scenarioPRJP1.node[0].udp 	rcvdPk:count 	286
attr interpolationmode  none
attr source  rcvdPk
attr title  "packets received, count"
scalar scenarioPRJP1.node[0].udp 	rcvdPk:sum(packetBytes) 	148720
attr interpolationmode  none
attr source  rcvdPk
attr title  "packets received, sum(packetBytes)"
scalar scenarioPRJP1.node[0].udp 	sentPk:count 	2611
attr interpolationmode  none
attr source  sentPk
attr title  "packets sent, count"
scalar scenarioPRJP1.node[0].udp 	sentPk:sum(packetBytes) 	1357720
attr interpolationmode  none
attr source  sentPk
attr title  "packets sent, sum(packetBytes)"
scalar scenarioPRJP1.node[0].networkLayer.arp 	failedARPResolution:count 	68
attr title  "ARP failed resolutions, count"
scalar scenarioPRJP1.node[0].networkLayer.arp 	completedARPResolution:count 	382
attr title  "ARP completed resolutions, count"
scalar scenarioPRJP1.node[0].networkLayer.arp 	initiatedARPResolution:count 	95
attr title  "ARP initiated resolutions, count"
scalar scenarioPRJP1.node[0].networkLayer.arp 	sentReply:count 	38
attr title  "ARP replies sent, count"
scalar scenarioPRJP1.node[0].networkLayer.arp 	sentReq:count 	252
attr title  "ARP request sent, count"
scalar scenarioPRJP1.node[0].mobility 	startTime 	0.1
scalar scenarioPRJP1.node[0].mobility 	totalTime 	949.9
scalar scenarioPRJP1.node[0].mobility 	stopTime 	950
scalar scenarioPRJP1.node[0].mobility 	minSpeed 	2.475480341943e-13
scalar scenarioPRJP1.node[0].mobility 	maxSpeed 	16.158231014205
scalar scenarioPRJP1.node[0].mobility 	totalDistance 	9331.4491659835
scalar scenarioPRJP1.node[0].mobility 	totalCO2Emission 	2344.4340974585
scalar scenarioPRJP1.node[0].wlan.mgmt 	dataQueueLen:max 	1
attr interpolationmode  sample-hold
attr title  "data queue length, max"
scalar scenarioPRJP1.node[0].wlan.mgmt 	dataQueueLen:timeavg 	0
attr interpolationmode  sample-hold
attr title  "data queue length, timeavg"
scalar scenarioPRJP1.node[0].wlan.mgmt 	dropPkByQueue:count 	0
attr interpolationmode  none
attr source  dropPkByQueue
attr title  "packets dropped by queue, count"
scalar scenarioPRJP1.node[0].wlan.mgmt 	dropPkByQueue:sum(packetBytes) 	0
attr interpolationmode  none
attr source  dropPkByQueue
attr title  "packets dropped by queue, sum(packetBytes)"
scalar scenarioPRJP1.node[0].wlan.mac 	"number of received packets" 	1104
scalar scenarioPRJP1.node[0].wlan.mac 	"number of collisions" 	5588
scalar scenarioPRJP1.node[0].wlan.mac 	"number of internal collisions" 	0
scalar scenarioPRJP1.node[0].wlan.mac 	"number of retry for AC 0" 	6191
scalar scenarioPRJP1.node[0].wlan.mac 	"number of retry for AC 1" 	67
scalar scenarioPRJP1.node[0].wlan.mac 	"number of retry for AC 2" 	0
scalar scenarioPRJP1.node[0].wlan.mac 	"number of retry for AC 3" 	0
scalar scenarioPRJP1.node[0].wlan.mac 	"sent and received bits" 	19662400
scalar scenarioPRJP1.node[0].wlan.mac 	"sent packet within AC 0" 	264
scalar scenarioPRJP1.node[0].wlan.mac 	"sent packet within AC 1" 	21
scalar scenarioPRJP1.node[0].wlan.mac 	"sent packet within AC 2" 	0
scalar scenarioPRJP1.node[0].wlan.mac 	"sent packet within AC 3" 	0
scalar scenarioPRJP1.node[0].wlan.mac 	"sent in TXOP " 	0
scalar scenarioPRJP1.node[0].wlan.mac 	"sentWithoutRetry AC 0" 	195
scalar scenarioPRJP1.node[0].wlan.mac 	"sentWithoutRetry AC 1" 	14
scalar scenarioPRJP1.node[0].wlan.mac 	"sentWithoutRetry AC 2" 	0
scalar scenarioPRJP1.node[0].wlan.mac 	"sentWithoutRetry AC 3" 	0
scalar scenarioPRJP1.node[0].wlan.mac 	"numGivenUp AC 0" 	1011
scalar scenarioPRJP1.node[0].wlan.mac 	"numGivenUp AC 1" 	9
scalar scenarioPRJP1.node[0].wlan.mac 	"numGivenUp AC 2" 	0
scalar scenarioPRJP1.node[0].wlan.mac 	"numGivenUp AC 3" 	0
scalar scenarioPRJP1.node[0].wlan.mac 	"numDropped AC 0" 	0
scalar scenarioPRJP1.node[0].wlan.mac 	"numDropped AC 1" 	0
scalar scenarioPRJP1.node[0].wlan.mac 	"numDropped AC 2" 	0
scalar scenarioPRJP1.node[0].wlan.mac 	"numDropped AC 3" 	0
scalar scenarioPRJP1.node[0].wlan.mac 	rcvdPkFromLL:count 	25246
attr interpolationmode  none
attr source  packetReceivedFromLower
attr title  "packets received from lower layer, count"
scalar scenarioPRJP1.node[0].wlan.mac 	rcvdPkFromLL:sum(packetBytes) 	14379176
attr interpolationmode  none
attr source  packetReceivedFromLower
attr title  "packets received from lower layer, sum(packetBytes)"
scalar scenarioPRJP1.node[0].wlan.mac 	sentDownPk:count 	11076
attr interpolationmode  none
attr source  packetSentToLower
attr title  "packets sent to lower layer, count"
scalar scenarioPRJP1.node[0].wlan.mac 	sentDownPk:sum(packetBytes) 	6510328
attr interpolationmode  none
attr source  packetSentToLower
attr title  "packets sent to lower layer, sum(packetBytes)"
scalar scenarioPRJP1.node[0].wlan.mac 	rcvdPkFromHL:count 	3714
attr interpolationmode  none
attr source  packetReceivedFromUpper
attr title  "packets received from higher layer, count"
scalar scenarioPRJP1.node[0].wlan.mac 	rcvdPkFromHL:sum(packetBytes) 	3024068
attr interpolationmode  none
attr source  packetReceivedFromUpper
attr title  "packets received from higher layer, sum(packetBytes)"
scalar scenarioPRJP1.node[0].wlan.mac 	passedUpPk:count 	5680
attr interpolationmode  none
attr source  packetSentToUpper
attr title  "packets passed to higher layer, count"
scalar scenarioPRJP1.node[0].wlan.mac 	passedUpPk:sum(packetBytes) 	5257400
attr interpolationmode  none
attr source  packetSentToUpper
attr title  "packets passed to higher layer, sum(packetBytes)"
statistic scenarioPRJP1.node[0].wlan.radio 	radioChannel:histogram
field count 1
field mean 3
field stddev -nan
field sum 3
field sqrsum 9
field min 3
field max 3
attr interpolationmode  sample-hold
attr source  radioChannelChanged
attr title  "Radio channel, histogram"
bin	-INF	0
bin	2	0
bin	3	1
bin	4	0
scalar scenarioPRJP1.node[0].wlan.radio 	transmissionState:count 	44304
attr interpolationmode  sample-hold
attr source  transmissionStateChanged
attr title  "Radio transmission state, count"
scalar scenarioPRJP1.node[0].wlan.radio 	receptionState:count 	74412
attr interpolationmode  sample-hold
attr source  receptionStateChanged
attr title  "Radio reception state, count"
scalar scenarioPRJP1.node[0].wlan.radio 	radioMode:count 	22154
attr interpolationmode  sample-hold
attr source  radioModeChanged
attr title  "Radio mode, count"
statistic scenarioPRJP1.node[0].wlan.radio 	symbolErrorRate:histogram
field count 0
field mean -nan
field stddev -nan
field sum 0
field sqrsum 0
field min -nan
field max -nan
attr source  symbolErrorRate
attr title  "Symbol error rate, histogram"
bin	-INF	0
bin	-0.5	0
bin	-0.46666666666667	0
bin	-0.43333333333333	0
bin	-0.4	0
bin	-0.36666666666667	0
bin	-0.33333333333333	0
bin	-0.3	0
bin	-0.26666666666667	0
bin	-0.23333333333333	0
bin	-0.2	0
bin	-0.16666666666667	0
bin	-0.13333333333333	0
bin	-0.1	0
bin	-0.066666666666667	0
bin	-0.033333333333333	0
bin	-6.9388939039072e-18	0
bin	0.033333333333333	0
bin	0.066666666666667	0
bin	0.1	0
bin	0.13333333333333	0
bin	0.16666666666667	0
bin	0.2	0
bin	0.23333333333333	0
bin	0.26666666666667	0
bin	0.3	0
bin	0.33333333333333	0
bin	0.36666666666667	0
bin	0.4	0
bin	0.43333333333333	0
bin	0.46666666666667	0
bin	0.5	0
statistic scenarioPRJP1.node[0].wlan.radio 	bitErrorRate:histogram
field count 0
field mean -nan
field stddev -nan
field sum 0
field sqrsum 0
field min -nan
field max -nan
attr source  bitErrorRate
attr title  "Bit error rate, histogram"
bin	-INF	0
bin	-0.5	0
bin	-0.46666666666667	0
bin	-0.43333333333333	0
bin	-0.4	0
bin	-0.36666666666667	0
bin	-0.33333333333333	0
bin	-0.3	0
bin	-0.26666666666667	0
bin	-0.23333333333333	0
bin	-0.2	0
bin	-0.16666666666667	0
bin	-0.13333333333333	0
bin	-0.1	0
bin	-0.066666666666667	0
bin	-0.033333333333333	0
bin	-6.9388939039072e-18	0
bin	0.033333333333333	0
bin	0.066666666666667	0
bin	0.1	0
bin	0.13333333333333	0
bin	0.16666666666667	0
bin	0.2	0
bin	0.23333333333333	0
bin	0.26666666666667	0
bin	0.3	0
bin	0.33333333333333	0
bin	0.36666666666667	0
bin	0.4	0
bin	0.43333333333333	0
bin	0.46666666666667	0
bin	0.5	0
statistic scenarioPRJP1.node[0].wlan.radio 	packetErrorRate:histogram
field count 25246
field mean 0.21717020754486
field stddev 0.40534617713258
field sum 5482.6790596775
field sqrsum 5338.5674854044
field min 0
field max 1
attr source  packetErrorRate
attr title  "Packet error rate, histogram"
bin	-INF	0
bin	-0.0047255175148419	0
bin	-0.004095448512863	0
bin	-0.0034653795108841	0
bin	-0.0028353105089051	0
bin	-0.0022052415069262	0
bin	-0.0015751725049473	0
bin	-0.00094510350296838	0
bin	-0.00031503450098946	18269
bin	0.00031503450098946	177
bin	0.00094510350296838	93
bin	0.0015751725049473	58
bin	0.0022052415069262	53
bin	0.0028353105089051	39
bin	0.0034653795108841	31
bin	0.004095448512863	17
bin	0.0047255175148419	23
bin	0.0053555865168208	13
bin	0.0059856555187997	24
bin	0.0066157245207787	16
bin	0.0072457935227576	18
bin	0.0078758625247365	13
bin	0.0085059315267154	11
bin	0.0091360005286943	14
bin	0.0097660695306733	15
bin	0.010396138532652	19
bin	0.011026207534631	13
bin	0.01165627653661	11
bin	0.012286345538589	7
bin	0.012916414540568	12
bin	0.013546483542547	3
bin	0.014176552544526	6297
statistic scenarioPRJP1.node[0].wlan.radio 	minSNIR:histogram
field count 25246
field mean 4235.9745959249
field stddev 51496.775453636
field sum 106941414.64872
field sqrsum 67400668049879
field min 0.00013384728014079
field max 5054184.7480248
attr source  minSNIR
attr title  "Min SNIR, histogram"
bin	-INF	0
bin	-17888.463580552	0
bin	-15502.960567404	0
bin	-13117.457554256	0
bin	-10731.954541108	0
bin	-8346.4515279595	0
bin	-5960.9485148114	0
bin	-3575.4455016633	0
bin	-1189.9424885153	21743
bin	1195.5605246328	1439
bin	3581.0635377809	452
bin	5966.566550929	254
bin	8352.0695640771	165
bin	10737.572577225	125
bin	13123.075590373	92
bin	15508.578603521	88
bin	17894.081616669	76
bin	20279.584629818	53
bin	22665.087642966	45
bin	25050.590656114	52
bin	27436.093669262	38
bin	29821.59668241	37
bin	32207.099695558	38
bin	34592.602708706	19
bin	36978.105721854	25
bin	39363.608735002	22
bin	41749.11174815	14
bin	44134.614761298	19
bin	46520.117774446	16
bin	48905.620787595	18
bin	51291.123800743	11
bin	53676.626813891	405
scalar scenarioPRJP1.node[0].lo0.lo 	droppedPkBitError:count 	0
attr interpolationmode  none
attr source  dropPkBitError
attr title  "packets dropped/bit error, count"
scalar scenarioPRJP1.node[0].lo0.lo 	droppedPkBitError:sum(packetBytes) 	0
attr interpolationmode  none
attr source  dropPkBitError
attr title  "packets dropped/bit error, sum(packetBytes)"
scalar scenarioPRJP1.node[0].lo0.lo 	rcvdPkFromHL:count 	1
attr interpolationmode  none
attr source  packetReceivedFromUpper
attr title  "packets received from higher layer, count"
scalar scenarioPRJP1.node[0].lo0.lo 	rcvdPkFromHL:sum(packetBytes) 	56
attr interpolationmode  none
attr source  packetReceivedFromUpper
attr title  "packets received from higher layer, sum(packetBytes)"
scalar scenarioPRJP1.node[0].lo0.lo 	passedUpPk:count 	1
attr interpolationmode  none
attr source  packetSentToUpper
attr title  "packets passed to higher layer, count"
scalar scenarioPRJP1.node[0].lo0.lo 	passedUpPk:sum(packetBytes) 	56
attr interpolationmode  none
attr source  packetSentToUpper
attr title  "packets passed to higher layer, sum(packetBytes)"
scalar scenarioPRJP1.node[14].app 	"Total sent" 	2615
scalar scenarioPRJP1.node[14].app 	"Total received" 	306
scalar scenarioPRJP1.node[14].app 	"Total deleted" 	0
scalar scenarioPRJP1.node[14].app 	dropPk:count 	0
attr interpolationmode  none
attr source  dropPk
attr title  "packets dropped, count"
scalar scenarioPRJP1.node[14].app 	dropPk:sum(packetBytes) 	0
attr interpolationmode  none
attr source  dropPk
attr title  "packets dropped, sum(packetBytes)"
scalar scenarioPRJP1.node[14].app 	outOfOrderPk:count 	0
attr interpolationmode  none
attr source  outOfOrderPk
attr title  "packets received out of order, count"
scalar scenarioPRJP1.node[14].app 	outOfOrderPk:sum(packetBytes) 	0
attr interpolationmode  none
attr source  outOfOrderPk
attr title  "packets received out of order, sum(packetBytes)"
scalar scenarioPRJP1.node[14].app 	rcvdPk:count 	306
attr interpolationmode  none
attr source  rcvdPk
attr title  "packets received, count"
scalar scenarioPRJP1.node[14].app 	rcvdPk:sum(packetBytes) 	156672
attr interpolationmode  none
attr source  rcvdPk
attr title  "packets received, sum(packetBytes)"
statistic scenarioPRJP1.node[14].app 	endToEndDelay:histogram
field count 306
field mean 0.11107888414094
field stddev 0.36670056349683
field sum 33.990138547127
field sqrsum 44.788724158623
field min 0.000945023772
field max 2.60014423646
attr interpolationmode  none
attr source  messageAge(rcvdPk)
attr title  "delay, histogram"
attr unit  s
bin	-INF	0
bin	-1.298654262745	0
bin	-1.125374329447	0
bin	-0.952094396149	0
bin	-0.778814462851	0
bin	-0.605534529553	0
bin	-0.432254596255	0
bin	-0.258974662957	0
bin	-0.085694729659	283
bin	0.087585203639	0
bin	0.260865136937	1
bin	0.434145070235	4
bin	0.607425003533	0
bin	0.780704936831	1
bin	0.953984870129	7
bin	1.127264803427	1
bin	1.300544736725	1
bin	1.473824670023	2
bin	1.647104603321	1
bin	1.820384536619	1
bin	1.993664469917	2
bin	2.166944403215	1
bin	2.340224336513	0
bin	2.513504269811	1
bin	2.686784203109	0
bin	2.860064136407	0
bin	3.033344069705	0
bin	3.206624003003	0
bin	3.379903936301	0
bin	3.553183869599	0
bin	3.726463802897	0
bin	3.899743736195	0
scalar scenarioPRJP1.node[14].app 	sentPk:count 	2615
attr interpolationmode  none
attr source  sentPk
attr title  "packets sent, count"
scalar scenarioPRJP1.node[14].app 	sentPk:sum(packetBytes) 	1338880
attr interpolationmode  none
attr source  sentPk
attr title  "packets sent, sum(packetBytes)"
scalar scenarioPRJP1.node[14].udp 	droppedPkBadChecksum:count 	0
attr interpolationmode  none
attr title  "packets dropped (checksum error), count"
scalar scenarioPRJP1.node[14].udp 	droppedPkWrongPort:count 	0
attr interpolationmode  none
attr title  "packets dropped (wrong port), count"
scalar scenarioPRJP1.node[14].udp 	passedUpPk:count 	306
attr interpolationmode  none
attr title  "packets passed up, count"
scalar scenarioPRJP1.node[14].udp 	rcvdPk:count 	306
attr interpolationmode  none
attr source  rcvdPk
attr title  "packets received, count"
scalar scenarioPRJP1.node[14].udp 	rcvdPk:sum(packetBytes) 	159120
attr interpolationmode  none
attr source  rcvdPk
attr title  "packets received, sum(packetBytes)"
scalar scenarioPRJP1.node[14].udp 	sentPk:count 	2615
attr interpolationmode  none
attr source  sentPk
attr title  "packets sent, count"
scalar scenarioPRJP1.node[14].udp 	sentPk:sum(packetBytes) 	1359800
attr interpolationmode  none
attr source  sentPk
attr title  "packets sent, sum(packetBytes)"
scalar scenarioPRJP1.node[14].networkLayer.arp 	failedARPResolution:count 	75
attr title  "ARP failed resolutions, count"
scalar scenarioPRJP1.node[14].networkLayer.arp 	completedARPResolution:count 	448
attr title  "ARP completed resolutions, count"
scalar scenarioPRJP1.node[14].networkLayer.arp 	initiatedARPResolution:count 	107
attr title  "ARP initiated resolutions, count"
scalar scenarioPRJP1.node[14].networkLayer.arp 	sentReply:count 	31
attr title  "ARP replies sent, count"
scalar scenarioPRJP1.node[14].networkLayer.arp 	sentReq:count 	290
attr title  "ARP request sent, count"
scalar scenarioPRJP1.node[14].mobility 	startTime 	2.5
scalar scenarioPRJP1.node[14].mobility 	totalTime 	947.5
scalar scenarioPRJP1.node[14].mobility 	stopTime 	950
scalar scenarioPRJP1.node[14].mobility 	minSpeed 	0
scalar scenarioPRJP1.node[14].mobility 	maxSpeed 	20.179650655181
scalar scenarioPRJP1.node[14].mobility 	totalDistance 	10322.757762232
scalar scenarioPRJP1.node[14].mobility 	totalCO2Emission 	2923.6261571142
scalar scenarioPRJP1.node[14].wlan.mgmt 	dataQueueLen:max 	1
attr interpolationmode  sample-hold
attr title  "data queue length, max"
scalar scenarioPRJP1.node[14].wlan.mgmt 	dataQueueLen:timeavg 	0
attr interpolationmode  sample-hold
attr title  "data queue length, timeavg"
scalar scenarioPRJP1.node[14].wlan.mgmt 	dropPkByQueue:count 	0
attr interpolationmode  none
attr source  dropPkByQueue
attr title  "packets dropped by queue, count"
scalar scenarioPRJP1.node[14].wlan.mgmt 	dropPkByQueue:sum(packetBytes) 	0
attr interpolationmode  none
attr source  dropPkByQueue
attr title  "packets dropped by queue, sum(packetBytes)"
scalar scenarioPRJP1.node[14].wlan.mac 	"number of received packets" 	1102
scalar scenarioPRJP1.node[14].wlan.mac 	"number of collisions" 	5992
scalar scenarioPRJP1.node[14].wlan.mac 	"number of internal collisions" 	1
scalar scenarioPRJP1.node[14].wlan.mac 	"number of retry for AC 0" 	6412
scalar scenarioPRJP1.node[14].wlan.mac 	"number of retry for AC 1" 	108
scalar scenarioPRJP1.node[14].wlan.mac 	"number of retry for AC 2" 	0
scalar scenarioPRJP1.node[14].wlan.mac 	"number of retry for AC 3" 	0
scalar scenarioPRJP1.node[14].wlan.mac 	"sent and received bits" 	18209824
scalar scenarioPRJP1.node[14].wlan.mac 	"sent packet within AC 0" 	208
scalar scenarioPRJP1.node[14].wlan.mac 	"sent packet within AC 1" 	4
scalar scenarioPRJP1.node[14].wlan.mac 	"sent packet within AC 2" 	0
scalar scenarioPRJP1.node[14].wlan.mac 	"sent packet within AC 3" 	0
scalar scenarioPRJP1.node[14].wlan.mac 	"sent in TXOP " 	0
scalar scenarioPRJP1.node[14].wlan.mac 	"sentWithoutRetry AC 0" 	164
scalar scenarioPRJP1.node[14].wlan.mac 	"sentWithoutRetry AC 1" 	4
scalar scenarioPRJP1.node[14].wlan.mac 	"sentWithoutRetry AC 2" 	0
scalar scenarioPRJP1.node[14].wlan.mac 	"sentWithoutRetry AC 3" 	0
scalar scenarioPRJP1.node[14].wlan.mac 	"numGivenUp AC 0" 	1053
scalar scenarioPRJP1.node[14].wlan.mac 	"numGivenUp AC 1" 	18
scalar scenarioPRJP1.node[14].wlan.mac 	"numGivenUp AC 2" 	0
scalar scenarioPRJP1.node[14].wlan.mac 	"numGivenUp AC 3" 	0
scalar scenarioPRJP1.node[14].wlan.mac 	"numDropped AC 0" 	0
scalar scenarioPRJP1.node[14].wlan.mac 	"numDropped AC 1" 	0
scalar scenarioPRJP1.node[14].wlan.mac 	"numDropped AC 2" 	0
scalar scenarioPRJP1.node[14].wlan.mac 	"numDropped AC 3" 	0
scalar scenarioPRJP1.node[14].wlan.mac 	rcvdPkFromLL:count 	21741
attr interpolationmode  none
attr source  packetReceivedFromLower
attr title  "packets received from lower layer, count"
scalar scenarioPRJP1.node[14].wlan.mac 	rcvdPkFromLL:sum(packetBytes) 	12669372
attr interpolationmode  none
attr source  packetReceivedFromLower
attr title  "packets received from lower layer, sum(packetBytes)"
scalar scenarioPRJP1.node[14].wlan.mac 	sentDownPk:count 	11208
attr interpolationmode  none
attr source  packetSentToLower
attr title  "packets sent to lower layer, count"
scalar scenarioPRJP1.node[14].wlan.mac 	sentDownPk:sum(packetBytes) 	6502160
attr interpolationmode  none
attr source  packetSentToLower
attr title  "packets sent to lower layer, sum(packetBytes)"
scalar scenarioPRJP1.node[14].wlan.mac 	rcvdPkFromHL:count 	3587
attr interpolationmode  none
attr source  packetReceivedFromUpper
attr title  "packets received from higher layer, count"
scalar scenarioPRJP1.node[14].wlan.mac 	rcvdPkFromHL:sum(packetBytes) 	2870076
attr interpolationmode  none
attr source  packetReceivedFromUpper
attr title  "packets received from higher layer, sum(packetBytes)"
scalar scenarioPRJP1.node[14].wlan.mac 	passedUpPk:count 	5260
attr interpolationmode  none
attr source  packetSentToUpper
attr title  "packets passed to higher layer, count"
scalar scenarioPRJP1.node[14].wlan.mac 	passedUpPk:sum(packetBytes) 	4773484
attr interpolationmode  none
attr source  packetSentToUpper
attr title  "packets passed to higher layer, sum(packetBytes)"
statistic scenarioPRJP1.node[14].wlan.radio 	radioChannel:histogram
field count 1
field mean 3
field stddev -nan
field sum 3
field sqrsum 9
field min 3
field max 3
attr interpolationmode  sample-hold
attr source  radioChannelChanged
attr title  "Radio channel, histogram"
bin	-INF	0
bin	2	0
bin	3	1
bin	4	0
scalar scenarioPRJP1.node[14].wlan.radio 	transmissionState:count 	44832
attr interpolationmode  sample-hold
attr source  transmissionStateChanged
attr title  "Radio transmission state, count"
scalar scenarioPRJP1.node[14].wlan.radio 	receptionState:count 	67340
attr interpolationmode  sample-hold
attr source  receptionStateChanged
attr title  "Radio reception state, count"
scalar scenarioPRJP1.node[14].wlan.radio 	radioMode:count 	22418
attr interpolationmode  sample-hold
attr source  radioModeChanged
attr title  "Radio mode, count"
statistic scenarioPRJP1.node[14].wlan.radio 	symbolErrorRate:histogram
field count 0
field mean -nan
field stddev -nan
field sum 0
field sqrsum 0
field min -nan
field max -nan
attr source  symbolErrorRate
attr title  "Symbol error rate, histogram"
bin	-INF	0
bin	-0.5	0
bin	-0.46666666666667	0
bin	-0.43333333333333	0
bin	-0.4	0
bin	-0.36666666666667	0
bin	-0.33333333333333	0
bin	-0.3	0
bin	-0.26666666666667	0
bin	-0.23333333333333	0
bin	-0.2	0
bin	-0.16666666666667	0
bin	-0.13333333333333	0
bin	-0.1	0
bin	-0.066666666666667	0
bin	-0.033333333333333	0
bin	-6.9388939039072e-18	0
bin	0.033333333333333	0
bin	0.066666666666667	0
bin	0.1	0
bin	0.13333333333333	0
bin	0.16666666666667	0
bin	0.2	0
bin	0.23333333333333	0
bin	0.26666666666667	0
bin	0.3	0
bin	0.33333333333333	0
bin	0.36666666666667	0
bin	0.4	0
bin	0.43333333333333	0
bin	0.46666666666667	0
bin	0.5	0
statistic scenarioPRJP1.node[14].wlan.radio 	bitErrorRate:histogram
field count 0
field mean -nan
field stddev -nan
field sum 0
field sqrsum 0
field min -nan
field max -nan
attr source  bitErrorRate
attr title  "Bit error rate, histogram"
bin	-INF	0
bin	-0.5	0
bin	-0.46666666666667	0
bin	-0.43333333333333	0
bin	-0.4	0
bin	-0.36666666666667	0
bin	-0.33333333333333	0
bin	-0.3	0
bin	-0.26666666666667	0
bin	-0.23333333333333	0
bin	-0.2	0
bin	-0.16666666666667	0
bin	-0.13333333333333	0
bin	-0.1	0
bin	-0.066666666666667	0
bin	-0.033333333333333	0
bin	-6.9388939039072e-18	0
bin	0.033333333333333	0
bin	0.066666666666667	0
bin	0.1	0
bin	0.13333333333333	0
bin	0.16666666666667	0
bin	0.2	0
bin	0.23333333333333	0
bin	0.26666666666667	0
bin	0.3	0
bin	0.33333333333333	0
bin	0.36666666666667	0
bin	0.4	0
bin	0.43333333333333	0
bin	0.46666666666667	0
bin	0.5	0
statistic scenarioPRJP1.node[14].wlan.radio 	packetErrorRate:histogram
field count 21741
field mean 0.26885599887019
field stddev 0.43445670364962
field sum 5845.1982714369
field sqrsum 5674.9987383655
field min 0
field max 1
attr source  packetErrorRate
attr title  "Packet error rate, histogram"
bin	-INF	6836
bin	-2.2980728431321e-11	0
bin	-1.9916631307145e-11	0
bin	-1.6852534182969e-11	0
bin	-1.3788437058793e-11	0
bin	-1.0724339934616e-11	0
bin	-7.6602428104403e-12	0
bin	-4.5961456862642e-12	0
bin	-1.5320485620881e-12	12207
bin	1.5320485620881e-12	89
bin	4.5961456862642e-12	33
bin	7.6602428104403e-12	26
bin	1.0724339934616e-11	22
bin	1.3788437058793e-11	14
bin	1.6852534182969e-11	15
bin	1.9916631307145e-11	13
bin	2.2980728431321e-11	11
bin	2.6044825555497e-11	8
bin	2.9108922679673e-11	11
bin	3.2173019803849e-11	10
bin	3.5237116928026e-11	8
bin	3.8301214052202e-11	9
bin	4.1365311176378e-11	7
bin	4.4429408300554e-11	5
bin	4.749350542473e-11	7
bin	5.0557602548906e-11	5
bin	5.3621699673082e-11	4
bin	5.6685796797259e-11	8
bin	5.9749893921435e-11	3
bin	6.2813991045611e-11	4
bin	6.5878088169787e-11	6
bin	6.8942185293963e-11	2380
statistic scenarioPRJP1.node[14].wlan.radio 	minSNIR:histogram
field count 21741
field mean 937.80967337243
field stddev 6995.0295955186
field sum 20388920.10879
field sqrsum 1082868671284.7
field min 0.0019338943942333
field max 289286.18214377
attr source  minSNIR
attr title  "Min SNIR, histogram"
bin	-INF	0
bin	-15121.316870374	0
bin	-13104.406069431	0
bin	-11087.495268489	0
bin	-9070.5844675462	0
bin	-7053.6736666035	0
bin	-5036.7628656609	0
bin	-3019.8520647183	0
bin	-1002.9412637756	20158
bin	1013.969537167	680
bin	3030.8803381097	202
bin	5047.7911390523	151
bin	7064.701939995	99
bin	9081.6127409376	76
bin	11098.52354188	47
bin	13115.434342823	32
bin	15132.345143766	34
bin	17149.255944708	31
bin	19166.166745651	24
bin	21183.077546593	17
bin	23199.988347536	20
bin	25216.899148479	10
bin	27233.809949421	13
bin	29250.720750364	15
bin	31267.631551307	10
bin	33284.542352249	9
bin	35301.453153192	4
bin	37318.363954135	7
bin	39335.274755077	10
bin	41352.18555602	8
bin	43369.096356963	3
bin	45386.007157905	81
scalar scenarioPRJP1.node[14].lo0.lo 	droppedPkBitError:count 	0
attr interpolationmode  none
attr source  dropPkBitError
attr title  "packets dropped/bit error, count"
scalar scenarioPRJP1.node[14].lo0.lo 	droppedPkBitError:sum(packetBytes) 	0
attr interpolationmode  none
attr source  dropPkBitError
attr title  "packets dropped/bit error, sum(packetBytes)"
scalar scenarioPRJP1.node[14].lo0.lo 	rcvdPkFromHL:count 	0
attr interpolationmode  none
attr source  packetReceivedFromUpper
attr title  "packets received from higher layer, count"
scalar scenarioPRJP1.node[14].lo0.lo 	rcvdPkFromHL:sum(packetBytes) 	0
attr interpolationmode  none
attr source  packetReceivedFromUpper
attr title  "packets received from higher layer, sum(packetBytes)"
scalar scenarioPRJP1.node[14].lo0.lo 	passedUpPk:count 	0
attr interpolationmode  none
attr source  packetSentToUpper
attr title  "packets passed to higher layer, count"
scalar scenarioPRJP1.node[14].lo0.lo 	passedUpPk:sum(packetBytes) 	0
attr interpolationmode  none
attr source  packetSentToUpper
attr title  "packets passed to higher layer, sum(packetBytes)"
scalar scenarioPRJP1.node[1].app 	"Total sent" 	2590
scalar scenarioPRJP1.node[1].app 	"Total received" 	405
scalar scenarioPRJP1.node[1].app 	"Total deleted" 	0
scalar scenarioPRJP1.node[1].app 	dropPk:count 	0
attr interpolationmode  none
attr source  dropPk
attr title  "packets dropped, count"
scalar scenarioPRJP1.node[1].app 	dropPk:sum(packetBytes) 	0
attr interpolationmode  none
attr source  dropPk
attr title  "packets dropped, sum(packetBytes)"
scalar scenarioPRJP1.node[1].app 	outOfOrderPk:count 	0
attr interpolationmode  none
attr source  outOfOrderPk
attr title  "packets received out of order, count"
scalar scenarioPRJP1.node[1].app 	outOfOrderPk:sum(packetBytes) 	0
attr interpolationmode  none
attr source  outOfOrderPk
attr title  "packets received out of order, sum(packetBytes)"
scalar scenarioPRJP1.node[1].app 	rcvdPk:count 	405
attr interpolationmode  none
attr source  rcvdPk
attr title  "packets received, count"
scalar scenarioPRJP1.node[1].app 	rcvdPk:sum(packetBytes) 	207360
attr interpolationmode  none
attr source  rcvdPk
attr title  "packets received, sum(packetBytes)"
statistic scenarioPRJP1.node[1].app 	endToEndDelay:histogram
field count 405
field mean 0.086666516777375
field stddev 0.345413804487
field sum 35.099939294837
field sqrsum 51.243510795174
field min 0.000945011007
field max 2.32671643051
attr interpolationmode  none
attr source  messageAge(rcvdPk)
attr title  "delay, histogram"
attr unit  s
bin	-INF	0
bin	-1.038292759267	0
bin	-0.89972772095807	0
bin	-0.76116268264913	0
bin	-0.6225976443402	0
bin	-0.48403260603127	0
bin	-0.34546756772233	0
bin	-0.2069025294134	0
bin	-0.068337491104467	382
bin	0.070227547204466	2
bin	0.2087925855134	1
bin	0.34735762382233	0
bin	0.48592266213127	1
bin	0.6244877004402	0
bin	0.76305273874913	3
bin	0.90161777705807	2
bin	1.040182815367	2
bin	1.1787478536759	2
bin	1.3173128919849	0
bin	1.4558779302938	0
bin	1.5944429686027	0
bin	1.7330080069117	3
bin	1.8715730452206	0
bin	2.0101380835295	5
bin	2.1487031218385	1
bin	2.2872681601474	1
bin	2.4258331984563	0
bin	2.5643982367653	0
bin	2.7029632750742	0
bin	2.8415283133831	0
bin	2.9800933516921	0
bin	3.118658390001	0
scalar scenarioPRJP1.node[1].app 	sentPk:count 	2590
attr interpolationmode  none
attr source  sentPk
attr title  "packets sent, count"
scalar scenarioPRJP1.node[1].app 	sentPk:sum(packetBytes) 	1326080
attr interpolationmode  none
attr source  sentPk
attr title  "packets sent, sum(packetBytes)"
scalar scenarioPRJP1.node[1].udp 	droppedPkBadChecksum:count 	0
attr interpolationmode  none
attr title  "packets dropped (checksum error), count"
scalar scenarioPRJP1.node[1].udp 	droppedPkWrongPort:count 	0
attr interpolationmode  none
attr title  "packets dropped (wrong port), count"
scalar scenarioPRJP1.node[1].udp 	passedUpPk:count 	405
attr interpolationmode  none
attr title  "packets passed up, count"
scalar scenarioPRJP1.node[1].udp 	rcvdPk:count 	405
attr interpolationmode  none
attr source  rcvdPk
attr title  "packets received, count"
scalar scenarioPRJP1.node[1].udp 	rcvdPk:sum(packetBytes) 	210600
attr interpolationmode  none
attr source  rcvdPk
attr title  "packets received, sum(packetBytes)"
scalar scenarioPRJP1.node[1].udp 	sentPk:count 	2590
attr interpolationmode  none
attr source  sentPk
attr title  "packets sent, count"
scalar scenarioPRJP1.node[1].udp 	sentPk:sum(packetBytes) 	1346800
attr interpolationmode  none
attr source  sentPk
attr title  "packets sent, sum(packetBytes)"
scalar scenarioPRJP1.node[1].networkLayer.arp 	failedARPResolution:count 	61
attr title  "ARP failed resolutions, count"
scalar scenarioPRJP1.node[1].networkLayer.arp 	completedARPResolution:count 	687
attr title  "ARP completed resolutions, count"
scalar scenarioPRJP1.node[1].networkLayer.arp 	initiatedARPResolution:count 	96
attr title  "ARP initiated resolutions, count"
scalar scenarioPRJP1.node[1].networkLayer.arp 	sentReply:count 	28
attr title  "ARP replies sent, count"
scalar scenarioPRJP1.node[1].networkLayer.arp 	sentReq:count 	252
attr title  "ARP request sent, count"
scalar scenarioPRJP1.node[1].mobility 	startTime 	0.1
scalar scenarioPRJP1.node[1].mobility 	totalTime 	949.9
scalar scenarioPRJP1.node[1].mobility 	stopTime 	950
scalar scenarioPRJP1.node[1].mobility 	minSpeed 	2.4754425130485e-13
scalar scenarioPRJP1.node[1].mobility 	maxSpeed 	19.657911119666
scalar scenarioPRJP1.node[1].mobility 	totalDistance 	10719.934855866
scalar scenarioPRJP1.node[1].mobility 	totalCO2Emission 	2943.9975136164
scalar scenarioPRJP1.node[1].wlan.mgmt 	dataQueueLen:max 	4
attr interpolationmode  sample-hold
attr title  "data queue length, max"
scalar scenarioPRJP1.node[1].wlan.mgmt 	dataQueueLen:timeavg 	0
attr interpolationmode  sample-hold
attr title  "data queue length, timeavg"
scalar scenarioPRJP1.node[1].wlan.mgmt 	dropPkByQueue:count 	0
attr interpolationmode  none
attr source  dropPkByQueue
attr title  "packets dropped by queue, count"
scalar scenarioPRJP1.node[1].wlan.mgmt 	dropPkByQueue:sum(packetBytes) 	0
attr interpolationmode  none
attr source  dropPkByQueue
attr title  "packets dropped by queue, sum(packetBytes)"
scalar scenarioPRJP1.node[1].wlan.mac 	"number of received packets" 	1510
scalar scenarioPRJP1.node[1].wlan.mac 	"number of collisions" 	6672
scalar scenarioPRJP1.node[1].wlan.mac 	"number of internal collisions" 	1
scalar scenarioPRJP1.node[1].wlan.mac 	"number of retry for AC 0" 	6383
scalar scenarioPRJP1.node[1].wlan.mac 	"number of retry for AC 1" 	85
scalar scenarioPRJP1.node[1].wlan.mac 	"number of retry for AC 2" 	0
scalar scenarioPRJP1.node[1].wlan.mac 	"number of retry for AC 3" 	0
scalar scenarioPRJP1.node[1].wlan.mac 	"sent and received bits" 	23663392
scalar scenarioPRJP1.node[1].wlan.mac 	"sent packet within AC 0" 	493
scalar scenarioPRJP1.node[1].wlan.mac 	"sent packet within AC 1" 	10
scalar scenarioPRJP1.node[1].wlan.mac 	"sent packet within AC 2" 	0
scalar scenarioPRJP1.node[1].wlan.mac 	"sent packet within AC 3" 	0
scalar scenarioPRJP1.node[1].wlan.mac 	"sent in TXOP " 	0
scalar scenarioPRJP1.node[1].wlan.mac 	"sentWithoutRetry AC 0" 	401
scalar scenarioPRJP1.node[1].wlan.mac 	"sentWithoutRetry AC 1" 	9
scalar scenarioPRJP1.node[1].wlan.mac 	"sentWithoutRetry AC 2" 	0
scalar scenarioPRJP1.node[1].wlan.mac 	"sentWithoutRetry AC 3" 	0
scalar scenarioPRJP1.node[1].wlan.mac 	"numGivenUp AC 0" 	1031
scalar scenarioPRJP1.node[1].wlan.mac 	"numGivenUp AC 1" 	14
scalar scenarioPRJP1.node[1].wlan.mac 	"numGivenUp AC 2" 	0
scalar scenarioPRJP1.node[1].wlan.mac 	"numGivenUp AC 3" 	0
scalar scenarioPRJP1.node[1].wlan.mac 	"numDropped AC 0" 	0
scalar scenarioPRJP1.node[1].wlan.mac 	"numDropped AC 1" 	0
scalar scenarioPRJP1.node[1].wlan.mac 	"numDropped AC 2" 	0
scalar scenarioPRJP1.node[1].wlan.mac 	"numDropped AC 3" 	0
scalar scenarioPRJP1.node[1].wlan.mac 	rcvdPkFromLL:count 	35132
attr interpolationmode  none
attr source  packetReceivedFromLower
attr title  "packets received from lower layer, count"
scalar scenarioPRJP1.node[1].wlan.mac 	rcvdPkFromLL:sum(packetBytes) 	20270918
attr interpolationmode  none
attr source  packetReceivedFromLower
attr title  "packets received from lower layer, sum(packetBytes)"
scalar scenarioPRJP1.node[1].wlan.mac 	sentDownPk:count 	12280
attr interpolationmode  none
attr source  packetSentToLower
attr title  "packets sent to lower layer, count"
scalar scenarioPRJP1.node[1].wlan.mac 	sentDownPk:sum(packetBytes) 	7168460
attr interpolationmode  none
attr source  packetSentToLower
attr title  "packets sent to lower layer, sum(packetBytes)"
scalar scenarioPRJP1.node[1].wlan.mac 	rcvdPkFromHL:count 	4303
attr interpolationmode  none
attr source  packetReceivedFromUpper
attr title  "packets received from higher layer, count"
scalar scenarioPRJP1.node[1].wlan.mac 	rcvdPkFromHL:sum(packetBytes) 	3540268
attr interpolationmode  none
attr source  packetReceivedFromUpper
attr title  "packets received from higher layer, sum(packetBytes)"
scalar scenarioPRJP1.node[1].wlan.mac 	passedUpPk:count 	8630
attr interpolationmode  none
attr source  packetSentToUpper
attr title  "packets passed to higher layer, count"
scalar scenarioPRJP1.node[1].wlan.mac 	passedUpPk:sum(packetBytes) 	7986928
attr interpolationmode  none
attr source  packetSentToUpper
attr title  "packets passed to higher layer, sum(packetBytes)"
statistic scenarioPRJP1.node[1].wlan.radio 	radioChannel:histogram
field count 1
field mean 3
field stddev -nan
field sum 3
field sqrsum 9
field min 3
field max 3
attr interpolationmode  sample-hold
attr source  radioChannelChanged
attr title  "Radio channel, histogram"
bin	-INF	0
bin	2	0
bin	3	1
bin	4	0
scalar scenarioPRJP1.node[1].wlan.radio 	transmissionState:count 	49120
attr interpolationmode  sample-hold
attr source  transmissionStateChanged
attr title  "Radio transmission state, count"
scalar scenarioPRJP1.node[1].wlan.radio 	receptionState:count 	97075
attr interpolationmode  sample-hold
attr source  receptionStateChanged
attr title  "Radio reception state, count"
scalar scenarioPRJP1.node[1].wlan.radio 	radioMode:count 	24562
attr interpolationmode  sample-hold
attr source  radioModeChanged
attr title  "Radio mode, count"
statistic scenarioPRJP1.node[1].wlan.radio 	symbolErrorRate:histogram
field count 0
field mean -nan
field stddev -nan
field sum 0
field sqrsum 0
field min -nan
field max -nan
attr source  symbolErrorRate
attr title  "Symbol error rate, histogram"
bin	-INF	0
bin	-0.5	0
bin	-0.46666666666667	0
bin	-0.43333333333333	0
bin	-0.4	0
bin	-0.36666666666667	0
bin	-0.33333333333333	0
bin	-0.3	0
bin	-0.26666666666667	0
bin	-0.23333333333333	0
bin	-0.2	0
bin	-0.16666666666667	0
bin	-0.13333333333333	0
bin	-0.1	0
bin	-0.066666666666667	0
bin	-0.033333333333333	0
bin	-6.9388939039072e-18	0
bin	0.033333333333333	0
bin	0.066666666666667	0
bin	0.1	0
bin	0.13333333333333	0
bin	0.16666666666667	0
bin	0.2	0
bin	0.23333333333333	0
bin	0.26666666666667	0
bin	0.3	0
bin	0.33333333333333	0
bin	0.36666666666667	0
bin	0.4	0
bin	0.43333333333333	0
bin	0.46666666666667	0
bin	0.5	0
statistic scenarioPRJP1.node[1].wlan.radio 	bitErrorRate:histogram
field count 0
field mean -nan
field stddev -nan
field sum 0
field sqrsum 0
field min -nan
field max -nan
attr source  bitErrorRate
attr title  "Bit error rate, histogram"
bin	-INF	0
bin	-0.5	0
bin	-0.46666666666667	0
bin	-0.43333333333333	0
bin	-0.4	0
bin	-0.36666666666667	0
bin	-0.33333333333333	0
bin	-0.3	0
bin	-0.26666666666667	0
bin	-0.23333333333333	0
bin	-0.2	0
bin	-0.16666666666667	0
bin	-0.13333333333333	0
bin	-0.1	0
bin	-0.066666666666667	0
bin	-0.033333333333333	0
bin	-6.9388939039072e-18	0
bin	0.033333333333333	0
bin	0.066666666666667	0
bin	0.1	0
bin	0.13333333333333	0
bin	0.16666666666667	0
bin	0.2	0
bin	0.23333333333333	0
bin	0.26666666666667	0
bin	0.3	0
bin	0.33333333333333	0
bin	0.36666666666667	0
bin	0.4	0
bin	0.43333333333333	0
bin	0.46666666666667	0
bin	0.5	0
statistic scenarioPRJP1.node[1].wlan.radio 	packetErrorRate:histogram
field count 35132
field mean 0.18617577842975
field stddev 0.38286429954256
field sum 6540.7274477939
field sqrsum 6367.4051837516
field min 0
field max 1
attr source  packetErrorRate
attr title  "Packet error rate, histogram"
bin	-INF	0
bin	-0.00029874372792421	0
bin	-0.00025891123086765	0
bin	-0.00021907873381109	0
bin	-0.00017924623675453	0
bin	-0.00013941373969797	0
bin	-9.9581242641404e-05	0
bin	-5.9748745584842e-05	0
bin	-1.9916248528281e-05	26356
bin	1.9916248528281e-05	220
bin	5.9748745584842e-05	98
bin	9.9581242641404e-05	75
bin	0.00013941373969797	56
bin	0.00017924623675453	39
bin	0.00021907873381109	39
bin	0.00025891123086765	28
bin	0.00029874372792421	18
bin	0.00033857622498077	21
bin	0.00037840872203733	20
bin	0.0004182412190939	23
bin	0.00045807371615046	13
bin	0.00049790621320702	11
bin	0.00053773871026358	18
bin	0.00057757120732014	17
bin	0.0006174037043767	11
bin	0.00065723620143326	14
bin	0.00069706869848983	9
bin	0.00073690119554639	16
bin	0.00077673369260295	10
bin	0.00081656618965951	10
bin	0.00085639868671607	7
bin	0.00089623118377263	8003
statistic scenarioPRJP1.node[1].wlan.radio 	minSNIR:histogram
field count 35132
field mean 7739.910659117
field stddev 49633.853191901
field sum 271918541.2761
field sqrsum 88650524648796
field min 0.00017640492064208
field max 2872624.6339286
attr source  minSNIR
attr title  "Min SNIR, histogram"
bin	-INF	0
bin	-6615.613059019	0
bin	-5733.1680341048	0
bin	-4850.7230091907	0
bin	-3968.2779842765	0
bin	-3085.8329593623	0
bin	-2203.3879344482	0
bin	-1320.942909534	0
bin	-438.49788461981	25558
bin	443.94714029436	3360
bin	1326.3921652085	1081
bin	2208.8371901227	594
bin	3091.2822150369	395
bin	3973.727239951	307
bin	4856.1722648652	270
bin	5738.6172897794	218
bin	6621.0623146936	194
bin	7503.5073396077	160
bin	8385.9523645219	111
bin	9268.3973894361	115
bin	10150.84241435	110
bin	11033.287439264	94
bin	11915.732464179	86
bin	12798.177489093	72
bin	13680.622514007	74
bin	14563.067538921	79
bin	15445.512563835	66
bin	16327.957588749	54
bin	17210.402613664	53
bin	18092.847638578	49
bin	18975.292663492	44
bin	19857.737688406	1988
scalar scenarioPRJP1.node[1].lo0.lo 	droppedPkBitError:count 	0
attr interpolationmode  none
attr source  dropPkBitError
attr title  "packets dropped/bit error, count"
scalar scenarioPRJP1.node[1].lo0.lo 	droppedPkBitError:sum(packetBytes) 	0
attr interpolationmode  none
attr source  dropPkBitError
attr title  "packets dropped/bit error, sum(packetBytes)"
scalar scenarioPRJP1.node[1].lo0.lo 	rcvdPkFromHL:count 	3
attr interpolationmode  none
attr source  packetReceivedFromUpper
attr title  "packets received from higher layer, count"
scalar scenarioPRJP1.node[1].lo0.lo 	rcvdPkFromHL:sum(packetBytes) 	168
attr interpolationmode  none
attr source  packetReceivedFromUpper
attr title  "packets received from higher layer, sum(packetBytes)"
scalar scenarioPRJP1.node[1].lo0.lo 	passedUpPk:count 	3
attr interpolationmode  none
attr source  packetSentToUpper
attr title  "packets passed to higher layer, count"
scalar scenarioPRJP1.node[1].lo0.lo 	passedUpPk:sum(packetBytes) 	168
attr interpolationmode  none
attr source  packetSentToUpper
attr title  "packets passed to higher layer, sum(packetBytes)"
scalar scenarioPRJP1.node[15].app 	"Total sent" 	2615
scalar scenarioPRJP1.node[15].app 	"Total received" 	248
scalar scenarioPRJP1.node[15].app 	"Total deleted" 	0
scalar scenarioPRJP1.node[15].app 	dropPk:count 	0
attr interpolationmode  none
attr source  dropPk
attr title  "packets dropped, count"
scalar scenarioPRJP1.node[15].app 	dropPk:sum(packetBytes) 	0
attr interpolationmode  none
attr source  dropPk
attr title  "packets dropped, sum(packetBytes)"
scalar scenarioPRJP1.node[15].app 	outOfOrderPk:count 	0
attr interpolationmode  none
attr source  outOfOrderPk
attr title  "packets received out of order, count"
scalar scenarioPRJP1.node[15].app 	outOfOrderPk:sum(packetBytes) 	0
attr interpolationmode  none
attr source  outOfOrderPk
attr title  "packets received out of order, sum(packetBytes)"
scalar scenarioPRJP1.node[15].app 	rcvdPk:count 	248
attr interpolationmode  none
attr source  rcvdPk
attr title  "packets received, count"
scalar scenarioPRJP1.node[15].app 	rcvdPk:sum(packetBytes) 	126976
attr interpolationmode  none
attr source  rcvdPk
attr title  "packets received, sum(packetBytes)"
statistic scenarioPRJP1.node[15].app 	endToEndDelay:histogram
field count 248
field mean 0.11024602472567
field stddev 0.40358711463826
field sum 27.341014131965
field sqrsum 43.246230218219
field min 0.000945034113
field max 4.017031149346
attr interpolationmode  none
attr source  messageAge(rcvdPk)
attr title  "delay, histogram"
attr unit  s
bin	-INF	0
bin	-1.007212191229	0
bin	-0.87279122595807	0
bin	-0.73837026068713	0
bin	-0.6039492954162	0
bin	-0.46952833014527	0
bin	-0.33510736487433	0
bin	-0.2006863996034	0
bin	-0.066265434332467	223
bin	0.068155530938467	4
bin	0.2025764962094	1
bin	0.33699746148033	0
bin	0.47141842675127	5
bin	0.6058393920222	1
bin	0.74026035729313	4
bin	0.87468132256407	1
bin	1.009102287835	3
bin	1.1435232531059	1
bin	1.2779442183769	0
bin	1.4123651836478	0
bin	1.5467861489187	0
bin	1.6812071141897	1
bin	1.8156280794606	0
bin	1.9500490447315	2
bin	2.0844700100025	0
bin	2.2188909752734	1
bin	2.3533119405443	0
bin	2.4877329058153	0
bin	2.6221538710862	0
bin	2.7565748363571	0
bin	2.8909958016281	0
bin	3.025416766899	1
scalar scenarioPRJP1.node[15].app 	sentPk:count 	2615
attr interpolationmode  none
attr source  sentPk
attr title  "packets sent, count"
scalar scenarioPRJP1.node[15].app 	sentPk:sum(packetBytes) 	1338880
attr interpolationmode  none
attr source  sentPk
attr title  "packets sent, sum(packetBytes)"
scalar scenarioPRJP1.node[15].udp 	droppedPkBadChecksum:count 	0
attr interpolationmode  none
attr title  "packets dropped (checksum error), count"
scalar scenarioPRJP1.node[15].udp 	droppedPkWrongPort:count 	0
attr interpolationmode  none
attr title  "packets dropped (wrong port), count"
scalar scenarioPRJP1.node[15].udp 	passedUpPk:count 	248
attr interpolationmode  none
attr title  "packets passed up, count"
scalar scenarioPRJP1.node[15].udp 	rcvdPk:count 	248
attr interpolationmode  none
attr source  rcvdPk
attr title  "packets received, count"
scalar scenarioPRJP1.node[15].udp 	rcvdPk:sum(packetBytes) 	128960
attr interpolationmode  none
attr source  rcvdPk
attr title  "packets received, sum(packetBytes)"
scalar scenarioPRJP1.node[15].udp 	sentPk:count 	2615
attr interpolationmode  none
attr source  sentPk
attr title  "packets sent, count"
scalar scenarioPRJP1.node[15].udp 	sentPk:sum(packetBytes) 	1359800
attr interpolationmode  none
attr source  sentPk
attr title  "packets sent, sum(packetBytes)"
scalar scenarioPRJP1.node[15].networkLayer.arp 	failedARPResolution:count 	74
attr title  "ARP failed resolutions, count"
scalar scenarioPRJP1.node[15].networkLayer.arp 	completedARPResolution:count 	326
attr title  "ARP completed resolutions, count"
scalar scenarioPRJP1.node[15].networkLayer.arp 	initiatedARPResolution:count 	110
attr title  "ARP initiated resolutions, count"
scalar scenarioPRJP1.node[15].networkLayer.arp 	sentReply:count 	19
attr title  "ARP replies sent, count"
scalar scenarioPRJP1.node[15].networkLayer.arp 	sentReq:count 	281
attr title  "ARP request sent, count"
scalar scenarioPRJP1.node[15].mobility 	startTime 	2.5
scalar scenarioPRJP1.node[15].mobility 	totalTime 	947.5
scalar scenarioPRJP1.node[15].mobility 	stopTime 	950
scalar scenarioPRJP1.node[15].mobility 	minSpeed 	2.4754894968544e-13
scalar scenarioPRJP1.node[15].mobility 	maxSpeed 	17.698100634495
scalar scenarioPRJP1.node[15].mobility 	totalDistance 	9633.758596236
scalar scenarioPRJP1.node[15].mobility 	totalCO2Emission 	2550.770875569
scalar scenarioPRJP1.node[15].wlan.mgmt 	dataQueueLen:max 	1
attr interpolationmode  sample-hold
attr title  "data queue length, max"
scalar scenarioPRJP1.node[15].wlan.mgmt 	dataQueueLen:timeavg 	0
attr interpolationmode  sample-hold
attr title  "data queue length, timeavg"
scalar scenarioPRJP1.node[15].wlan.mgmt 	dropPkByQueue:count 	0
attr interpolationmode  none
attr source  dropPkByQueue
attr title  "packets dropped by queue, count"
scalar scenarioPRJP1.node[15].wlan.mgmt 	dropPkByQueue:sum(packetBytes) 	0
attr interpolationmode  none
attr source  dropPkByQueue
attr title  "packets dropped by queue, sum(packetBytes)"
scalar scenarioPRJP1.node[15].wlan.mac 	"number of received packets" 	752
scalar scenarioPRJP1.node[15].wlan.mac 	"number of collisions" 	4169
scalar scenarioPRJP1.node[15].wlan.mac 	"number of internal collisions" 	1
scalar scenarioPRJP1.node[15].wlan.mac 	"number of retry for AC 0" 	3911
scalar scenarioPRJP1.node[15].wlan.mac 	"number of retry for AC 1" 	63
scalar scenarioPRJP1.node[15].wlan.mac 	"number of retry for AC 2" 	0
scalar scenarioPRJP1.node[15].wlan.mac 	"number of retry for AC 3" 	0
scalar scenarioPRJP1.node[15].wlan.mac 	"sent and received bits" 	17752768
scalar scenarioPRJP1.node[15].wlan.mac 	"sent packet within AC 0" 	168
scalar scenarioPRJP1.node[15].wlan.mac 	"sent packet within AC 1" 	13
scalar scenarioPRJP1.node[15].wlan.mac 	"sent packet within AC 2" 	0
scalar scenarioPRJP1.node[15].wlan.mac 	"sent packet within AC 3" 	0
scalar scenarioPRJP1.node[15].wlan.mac 	"sent in TXOP " 	0
scalar scenarioPRJP1.node[15].wlan.mac 	"sentWithoutRetry AC 0" 	136
scalar scenarioPRJP1.node[15].wlan.mac 	"sentWithoutRetry AC 1" 	11
scalar scenarioPRJP1.node[15].wlan.mac 	"sentWithoutRetry AC 2" 	0
scalar scenarioPRJP1.node[15].wlan.mac 	"sentWithoutRetry AC 3" 	0
scalar scenarioPRJP1.node[15].wlan.mac 	"numGivenUp AC 0" 	639
scalar scenarioPRJP1.node[15].wlan.mac 	"numGivenUp AC 1" 	10
scalar scenarioPRJP1.node[15].wlan.mac 	"numGivenUp AC 2" 	0
scalar scenarioPRJP1.node[15].wlan.mac 	"numGivenUp AC 3" 	0
scalar scenarioPRJP1.node[15].wlan.mac 	"numDropped AC 0" 	0
scalar scenarioPRJP1.node[15].wlan.mac 	"numDropped AC 1" 	0
scalar scenarioPRJP1.node[15].wlan.mac 	"numDropped AC 2" 	0
scalar scenarioPRJP1.node[15].wlan.mac 	"numDropped AC 3" 	0
scalar scenarioPRJP1.node[15].wlan.mac 	rcvdPkFromLL:count 	18820
attr interpolationmode  none
attr source  packetReceivedFromLower
attr title  "packets received from lower layer, count"
scalar scenarioPRJP1.node[15].wlan.mac 	rcvdPkFromLL:sum(packetBytes) 	11101154
attr interpolationmode  none
attr source  packetReceivedFromLower
attr title  "packets received from lower layer, sum(packetBytes)"
scalar scenarioPRJP1.node[15].wlan.mac 	sentDownPk:count 	7815
attr interpolationmode  none
attr source  packetSentToLower
attr title  "packets sent to lower layer, count"
scalar scenarioPRJP1.node[15].wlan.mac 	sentDownPk:sum(packetBytes) 	4799220
attr interpolationmode  none
attr source  packetSentToLower
attr title  "packets sent to lower layer, sum(packetBytes)"
scalar scenarioPRJP1.node[15].wlan.mac 	rcvdPkFromHL:count 	3090
attr interpolationmode  none
attr source  packetReceivedFromUpper
attr title  "packets received from higher layer, count"
scalar scenarioPRJP1.node[15].wlan.mac 	rcvdPkFromHL:sum(packetBytes) 	2579888
attr interpolationmode  none
attr source  packetReceivedFromUpper
attr title  "packets received from higher layer, sum(packetBytes)"
scalar scenarioPRJP1.node[15].wlan.mac 	passedUpPk:count 	4786
attr interpolationmode  none
attr source  packetSentToUpper
attr title  "packets passed to higher layer, count"
scalar scenarioPRJP1.node[15].wlan.mac 	passedUpPk:sum(packetBytes) 	4473924
attr interpolationmode  none
attr source  packetSentToUpper
attr title  "packets passed to higher layer, sum(packetBytes)"
statistic scenarioPRJP1.node[15].wlan.radio 	radioChannel:histogram
field count 1
field mean 3
field stddev -nan
field sum 3
field sqrsum 9
field min 3
field max 3
attr interpolationmode  sample-hold
attr source  radioChannelChanged
attr title  "Radio channel, histogram"
bin	-INF	0
bin	2	0
bin	3	1
bin	4	0
scalar scenarioPRJP1.node[15].wlan.radio 	transmissionState:count 	31260
attr interpolationmode  sample-hold
attr source  transmissionStateChanged
attr title  "Radio transmission state, count"
scalar scenarioPRJP1.node[15].wlan.radio 	receptionState:count 	54187
attr interpolationmode  sample-hold
attr source  receptionStateChanged
attr title  "Radio reception state, count"
scalar scenarioPRJP1.node[15].wlan.radio 	radioMode:count 	15632
attr interpolationmode  sample-hold
attr source  radioModeChanged
attr title  "Radio mode, count"
statistic scenarioPRJP1.node[15].wlan.radio 	symbolErrorRate:histogram
field count 0
field mean -nan
field stddev -nan
field sum 0
field sqrsum 0
field min -nan
field max -nan
attr source  symbolErrorRate
attr title  "Symbol error rate, histogram"
bin	-INF	0
bin	-0.5	0
bin	-0.46666666666667	0
bin	-0.43333333333333	0
bin	-0.4	0
bin	-0.36666666666667	0
bin	-0.33333333333333	0
bin	-0.3	0
bin	-0.26666666666667	0
bin	-0.23333333333333	0
bin	-0.2	0
bin	-0.16666666666667	0
bin	-0.13333333333333	0
bin	-0.1	0
bin	-0.066666666666667	0
bin	-0.033333333333333	0
bin	-6.9388939039072e-18	0
bin	0.033333333333333	0
bin	0.066666666666667	0
bin	0.1	0
bin	0.13333333333333	0
bin	0.16666666666667	0
bin	0.2	0
bin	0.23333333333333	0
bin	0.26666666666667	0
bin	0.3	0
bin	0.33333333333333	0
bin	0.36666666666667	0
bin	0.4	0
bin	0.43333333333333	0
bin	0.46666666666667	0
bin	0.5	0
statistic scenarioPRJP1.node[15].wlan.radio 	bitErrorRate:histogram
field count 0
field mean -nan
field stddev -nan
field sum 0
field sqrsum 0
field min -nan
field max -nan
attr source  bitErrorRate
attr title  "Bit error rate, histogram"
bin	-INF	0
bin	-0.5	0
bin	-0.46666666666667	0
bin	-0.43333333333333	0
bin	-0.4	0
bin	-0.36666666666667	0
bin	-0.33333333333333	0
bin	-0.3	0
bin	-0.26666666666667	0
bin	-0.23333333333333	0
bin	-0.2	0
bin	-0.16666666666667	0
bin	-0.13333333333333	0
bin	-0.1	0
bin	-0.066666666666667	0
bin	-0.033333333333333	0
bin	-6.9388939039072e-18	0
bin	0.033333333333333	0
bin	0.066666666666667	0
bin	0.1	0
bin	0.13333333333333	0
bin	0.16666666666667	0
bin	0.2	0
bin	0.23333333333333	0
bin	0.26666666666667	0
bin	0.3	0
bin	0.33333333333333	0
bin	0.36666666666667	0
bin	0.4	0
bin	0.43333333333333	0
bin	0.46666666666667	0
bin	0.5	0
statistic scenarioPRJP1.node[15].wlan.radio 	packetErrorRate:histogram
field count 18820
field mean 0.21608811941949
field stddev 0.40361348676373
field sum 4066.7784074749
field sqrsum 3944.4699891687
field min 0
field max 1
attr source  packetErrorRate
attr title  "Packet error rate, histogram"
bin	-INF	0
bin	-0.00030635954304892	0
bin	-0.00026551160397573	0
bin	-0.00022466366490254	0
bin	-0.00018381572582935	0
bin	-0.00014296778675616	0
bin	-0.00010211984768297	0
bin	-6.1271908609783e-05	0
bin	-2.0423969536594e-05	13194
bin	2.0423969536594e-05	126
bin	6.1271908609783e-05	64
bin	0.00010211984768297	35
bin	0.00014296778675616	34
bin	0.00018381572582935	29
bin	0.00022466366490254	23
bin	0.00026551160397573	22
bin	0.00030635954304892	23
bin	0.00034720748212211	16
bin	0.0003880554211953	16
bin	0.00042890336026848	15
bin	0.00046975129934167	10
bin	0.00051059923841486	8
bin	0.00055144717748805	8
bin	0.00059229511656124	12
bin	0.00063314305563443	9
bin	0.00067399099470762	12
bin	0.00071483893378081	6
bin	0.000755686872854	6
bin	0.00079653481192719	3
bin	0.00083738275100037	7
bin	0.00087823069007356	8
bin	0.00091907862914675	5134
statistic scenarioPRJP1.node[15].wlan.radio 	minSNIR:histogram
field count 18820
field mean 4084.1819332885
field stddev 28482.46489203
field sum 76864303.984489
field sqrsum 15580856725893
field min 0.00016884245367073
field max 900686.13721035
attr source  minSNIR
attr title  "Min SNIR, histogram"
bin	-INF	0
bin	-14709.290648956	0
bin	-12747.612327727	0
bin	-10785.934006498	0
bin	-8824.255685269	0
bin	-6862.5773640401	0
bin	-4900.8990428111	0
bin	-2939.2207215822	0
bin	-977.54240035331	16390
bin	984.13592087561	869
bin	2945.8142421045	295
bin	4907.4925633334	179
bin	6869.1708845624	135
bin	8830.8492057913	85
bin	10792.52752702	77
bin	12754.205848249	59
bin	14715.884169478	56
bin	16677.562490707	34
bin	18639.240811936	31
bin	20600.919133165	21
bin	22562.597454394	30
bin	24524.275775623	25
bin	26485.954096851	27
bin	28447.63241808	19
bin	30409.310739309	22
bin	32370.989060538	17
bin	34332.667381767	21
bin	36294.345702996	14
bin	38256.024024225	10
bin	40217.702345454	9
bin	42179.380666683	10
bin	44141.058987912	385
scalar scenarioPRJP1.node[15].lo0.lo 	droppedPkBitError:count 	0
attr interpolationmode  none
attr source  dropPkBitError
attr title  "packets dropped/bit error, count"
scalar scenarioPRJP1.node[15].lo0.lo 	droppedPkBitError:sum(packetBytes) 	0
attr interpolationmode  none
attr source  dropPkBitError
attr title  "packets dropped/bit error, sum(packetBytes)"
scalar scenarioPRJP1.node[15].lo0.lo 	rcvdPkFromHL:count 	0
attr interpolationmode  none
attr source  packetReceivedFromUpper
attr title  "packets received from higher layer, count"
scalar scenarioPRJP1.node[15].lo0.lo 	rcvdPkFromHL:sum(packetBytes) 	0
attr interpolationmode  none
attr source  packetReceivedFromUpper
attr title  "packets received from higher layer, sum(packetBytes)"
scalar scenarioPRJP1.node[15].lo0.lo 	passedUpPk:count 	0
attr interpolationmode  none
attr source  packetSentToUpper
attr title  "packets passed to higher layer, count"
scalar scenarioPRJP1.node[15].lo0.lo 	passedUpPk:sum(packetBytes) 	0
attr interpolationmode  none
attr source  packetSentToUpper
attr title  "packets passed to higher layer, sum(packetBytes)"
scalar scenarioPRJP1.node[2].app 	"Total sent" 	2607
scalar scenarioPRJP1.node[2].app 	"Total received" 	379
scalar scenarioPRJP1.node[2].app 	"Total deleted" 	0
scalar scenarioPRJP1.node[2].app 	dropPk:count 	0
attr interpolationmode  none
attr source  dropPk
attr title  "packets dropped, count"
scalar scenarioPRJP1.node[2].app 	dropPk:sum(packetBytes) 	0
attr interpolationmode  none
attr source  dropPk
attr title  "packets dropped, sum(packetBytes)"
scalar scenarioPRJP1.node[2].app 	outOfOrderPk:count 	0
attr interpolationmode  none
attr source  outOfOrderPk
attr title  "packets received out of order, count"
scalar scenarioPRJP1.node[2].app 	outOfOrderPk:sum(packetBytes) 	0
attr interpolationmode  none
attr source  outOfOrderPk
attr title  "packets received out of order, sum(packetBytes)"
scalar scenarioPRJP1.node[2].app 	rcvdPk:count 	379
attr interpolationmode  none
attr source  rcvdPk
attr title  "packets received, count"
scalar scenarioPRJP1.node[2].app 	rcvdPk:sum(packetBytes) 	194048
attr interpolationmode  none
attr source  rcvdPk
attr title  "packets received, sum(packetBytes)"
statistic scenarioPRJP1.node[2].app 	endToEndDelay:histogram
field count 379
field mean 0.084974831908826
field stddev 0.3128777015873
field sum 32.205461293445
field sqrsum 39.740002084866
field min 0.000925442241
field max 2.143447489464
attr interpolationmode  none
attr source  messageAge(rcvdPk)
attr title  "delay, histogram"
attr unit  s
bin	-INF	0
bin	-1.0703062282215	0
bin	-0.9274727296577	0
bin	-0.7846392310939	0
bin	-0.6418057325301	0
bin	-0.4989722339663	0
bin	-0.3561387354025	0
bin	-0.2133052368387	0
bin	-0.0704717382749	356
bin	0.0723617602889	1
bin	0.2151952588527	1
bin	0.3580287574165	0
bin	0.5008622559803	2
bin	0.6436957545441	3
bin	0.7865292531079	0
bin	0.9293627516717	6
bin	1.0721962502355	1
bin	1.2150297487993	1
bin	1.3578632473631	0
bin	1.5006967459269	2
bin	1.6435302444907	2
bin	1.7863637430545	0
bin	1.9291972416183	3
bin	2.0720307401821	1
bin	2.2148642387459	0
bin	2.3576977373097	0
bin	2.5005312358735	0
bin	2.6433647344373	0
bin	2.7861982330011	0
bin	2.9290317315649	0
bin	3.0718652301287	0
bin	3.2146987286925	0
scalar scenarioPRJP1.node[2].app 	sentPk:count 	2607
attr interpolationmode  none
attr source  sentPk
attr title  "packets sent, count"
scalar scenarioPRJP1.node[2].app 	sentPk:sum(packetBytes) 	1334784
attr interpolationmode  none
attr source  sentPk
attr title  "packets sent, sum(packetBytes)"
scalar scenarioPRJP1.node[2].udp 	droppedPkBadChecksum:count 	0
attr interpolationmode  none
attr title  "packets dropped (checksum error), count"
scalar scenarioPRJP1.node[2].udp 	droppedPkWrongPort:count 	0
attr interpolationmode  none
attr title  "packets dropped (wrong port), count"
scalar scenarioPRJP1.node[2].udp 	passedUpPk:count 	379
attr interpolationmode  none
attr title  "packets passed up, count"
scalar scenarioPRJP1.node[2].udp 	rcvdPk:count 	379
attr interpolationmode  none
attr source  rcvdPk
attr title  "packets received, count"
scalar scenarioPRJP1.node[2].udp 	rcvdPk:sum(packetBytes) 	197080
attr interpolationmode  none
attr source  rcvdPk
attr title  "packets received, sum(packetBytes)"
scalar scenarioPRJP1.node[2].udp 	sentPk:count 	2607
attr interpolationmode  none
attr source  sentPk
attr title  "packets sent, count"
scalar scenarioPRJP1.node[2].udp 	sentPk:sum(packetBytes) 	1355640
attr interpolationmode  none
attr source  sentPk
attr title  "packets sent, sum(packetBytes)"
scalar scenarioPRJP1.node[2].networkLayer.arp 	failedARPResolution:count 	96
attr title  "ARP failed resolutions, count"
scalar scenarioPRJP1.node[2].networkLayer.arp 	completedARPResolution:count 	678
attr title  "ARP completed resolutions, count"
scalar scenarioPRJP1.node[2].networkLayer.arp 	initiatedARPResolution:count 	135
attr title  "ARP initiated resolutions, count"
scalar scenarioPRJP1.node[2].networkLayer.arp 	sentReply:count 	26
attr title  "ARP replies sent, count"
scalar scenarioPRJP1.node[2].networkLayer.arp 	sentReq:count 	368
attr title  "ARP request sent, count"
scalar scenarioPRJP1.node[2].mobility 	startTime 	0.1
scalar scenarioPRJP1.node[2].mobility 	totalTime 	949.9
scalar scenarioPRJP1.node[2].mobility 	stopTime 	950
scalar scenarioPRJP1.node[2].mobility 	minSpeed 	2.476321784831e-13
scalar scenarioPRJP1.node[2].mobility 	maxSpeed 	19.599721586814
scalar scenarioPRJP1.node[2].mobility 	totalDistance 	10391.852584851
scalar scenarioPRJP1.node[2].mobility 	totalCO2Emission 	2981.5587634078
scalar scenarioPRJP1.node[2].wlan.mgmt 	dataQueueLen:max 	3
attr interpolationmode  sample-hold
attr title  "data queue length, max"
scalar scenarioPRJP1.node[2].wlan.mgmt 	dataQueueLen:timeavg 	0
attr interpolationmode  sample-hold
attr title  "data queue length, timeavg"
scalar scenarioPRJP1.node[2].wlan.mgmt 	dropPkByQueue:count 	0
attr interpolationmode  none
attr source  dropPkByQueue
attr title  "packets dropped by queue, count"
scalar scenarioPRJP1.node[2].wlan.mgmt 	dropPkByQueue:sum(packetBytes) 	0
attr interpolationmode  none
attr source  dropPkByQueue
attr title  "packets dropped by queue, sum(packetBytes)"
scalar scenarioPRJP1.node[2].wlan.mac 	"number of received packets" 	1330
scalar scenarioPRJP1.node[2].wlan.mac 	"number of collisions" 	7502
scalar scenarioPRJP1.node[2].wlan.mac 	"number of internal collisions" 	2
scalar scenarioPRJP1.node[2].wlan.mac 	"number of retry for AC 0" 	6964
scalar scenarioPRJP1.node[2].wlan.mac 	"number of retry for AC 1" 	95
scalar scenarioPRJP1.node[2].wlan.mac 	"number of retry for AC 2" 	0
scalar scenarioPRJP1.node[2].wlan.mac 	"number of retry for AC 3" 	0
scalar scenarioPRJP1.node[2].wlan.mac 	"sent and received bits" 	23139232
scalar scenarioPRJP1.node[2].wlan.mac 	"sent packet within AC 0" 	389
scalar scenarioPRJP1.node[2].wlan.mac 	"sent packet within AC 1" 	15
scalar scenarioPRJP1.node[2].wlan.mac 	"sent packet within AC 2" 	0
scalar scenarioPRJP1.node[2].wlan.mac 	"sent packet within AC 3" 	0
scalar scenarioPRJP1.node[2].wlan.mac 	"sent in TXOP " 	0
scalar scenarioPRJP1.node[2].wlan.mac 	"sentWithoutRetry AC 0" 	309
scalar scenarioPRJP1.node[2].wlan.mac 	"sentWithoutRetry AC 1" 	13
scalar scenarioPRJP1.node[2].wlan.mac 	"sentWithoutRetry AC 2" 	0
scalar scenarioPRJP1.node[2].wlan.mac 	"sentWithoutRetry AC 3" 	0
scalar scenarioPRJP1.node[2].wlan.mac 	"numGivenUp AC 0" 	1128
scalar scenarioPRJP1.node[2].wlan.mac 	"numGivenUp AC 1" 	15
scalar scenarioPRJP1.node[2].wlan.mac 	"numGivenUp AC 2" 	0
scalar scenarioPRJP1.node[2].wlan.mac 	"numGivenUp AC 3" 	0
scalar scenarioPRJP1.node[2].wlan.mac 	"numDropped AC 0" 	0
scalar scenarioPRJP1.node[2].wlan.mac 	"numDropped AC 1" 	0
scalar scenarioPRJP1.node[2].wlan.mac 	"numDropped AC 2" 	0
scalar scenarioPRJP1.node[2].wlan.mac 	"numDropped AC 3" 	0
scalar scenarioPRJP1.node[2].wlan.mac 	rcvdPkFromLL:count 	32764
attr interpolationmode  none
attr source  packetReceivedFromLower
attr title  "packets received from lower layer, count"
scalar scenarioPRJP1.node[2].wlan.mac 	rcvdPkFromLL:sum(packetBytes) 	19067060
attr interpolationmode  none
attr source  packetReceivedFromLower
attr title  "packets received from lower layer, sum(packetBytes)"
scalar scenarioPRJP1.node[2].wlan.mac 	sentDownPk:count 	12796
attr interpolationmode  none
attr source  packetSentToLower
attr title  "packets sent to lower layer, count"
scalar scenarioPRJP1.node[2].wlan.mac 	sentDownPk:sum(packetBytes) 	7491384
attr interpolationmode  none
attr source  packetSentToLower
attr title  "packets sent to lower layer, sum(packetBytes)"
scalar scenarioPRJP1.node[2].wlan.mac 	rcvdPkFromHL:count 	4409
attr interpolationmode  none
attr source  packetReceivedFromUpper
attr title  "packets received from higher layer, count"
scalar scenarioPRJP1.node[2].wlan.mac 	rcvdPkFromHL:sum(packetBytes) 	3530712
attr interpolationmode  none
attr source  packetReceivedFromUpper
attr title  "packets received from higher layer, sum(packetBytes)"
scalar scenarioPRJP1.node[2].wlan.mac 	passedUpPk:count 	8060
attr interpolationmode  none
attr source  packetSentToUpper
attr title  "packets passed to higher layer, count"
scalar scenarioPRJP1.node[2].wlan.mac 	passedUpPk:sum(packetBytes) 	7398024
attr interpolationmode  none
attr source  packetSentToUpper
attr title  "packets passed to higher layer, sum(packetBytes)"
statistic scenarioPRJP1.node[2].wlan.radio 	radioChannel:histogram
field count 1
field mean 3
field stddev -nan
field sum 3
field sqrsum 9
field min 3
field max 3
attr interpolationmode  sample-hold
attr source  radioChannelChanged
attr title  "Radio channel, histogram"
bin	-INF	0
bin	2	0
bin	3	1
bin	4	0
scalar scenarioPRJP1.node[2].wlan.radio 	transmissionState:count 	51184
attr interpolationmode  sample-hold
attr source  transmissionStateChanged
attr title  "Radio transmission state, count"
scalar scenarioPRJP1.node[2].wlan.radio 	receptionState:count 	93554
attr interpolationmode  sample-hold
attr source  receptionStateChanged
attr title  "Radio reception state, count"
scalar scenarioPRJP1.node[2].wlan.radio 	radioMode:count 	25594
attr interpolationmode  sample-hold
attr source  radioModeChanged
attr title  "Radio mode, count"
statistic scenarioPRJP1.node[2].wlan.radio 	symbolErrorRate:histogram
field count 0
field mean -nan
field stddev -nan
field sum 0
field sqrsum 0
field min -nan
field max -nan
attr source  symbolErrorRate
attr title  "Symbol error rate, histogram"
bin	-INF	0
bin	-0.5	0
bin	-0.46666666666667	0
bin	-0.43333333333333	0
bin	-0.4	0
bin	-0.36666666666667	0
bin	-0.33333333333333	0
bin	-0.3	0
bin	-0.26666666666667	0
bin	-0.23333333333333	0
bin	-0.2	0
bin	-0.16666666666667	0
bin	-0.13333333333333	0
bin	-0.1	0
bin	-0.066666666666667	0
bin	-0.033333333333333	0
bin	-6.9388939039072e-18	0
bin	0.033333333333333	0
bin	0.066666666666667	0
bin	0.1	0
bin	0.13333333333333	0
bin	0.16666666666667	0
bin	0.2	0
bin	0.23333333333333	0
bin	0.26666666666667	0
bin	0.3	0
bin	0.33333333333333	0
bin	0.36666666666667	0
bin	0.4	0
bin	0.43333333333333	0
bin	0.46666666666667	0
bin	0.5	0
statistic scenarioPRJP1.node[2].wlan.radio 	bitErrorRate:histogram
field count 0
field mean -nan
field stddev -nan
field sum 0
field sqrsum 0
field min -nan
field max -nan
attr source  bitErrorRate
attr title  "Bit error rate, histogram"
bin	-INF	0
bin	-0.5	0
bin	-0.46666666666667	0
bin	-0.43333333333333	0
bin	-0.4	0
bin	-0.36666666666667	0
bin	-0.33333333333333	0
bin	-0.3	0
bin	-0.26666666666667	0
bin	-0.23333333333333	0
bin	-0.2	0
bin	-0.16666666666667	0
bin	-0.13333333333333	0
bin	-0.1	0
bin	-0.066666666666667	0
bin	-0.033333333333333	0
bin	-6.9388939039072e-18	0
bin	0.033333333333333	0
bin	0.066666666666667	0
bin	0.1	0
bin	0.13333333333333	0
bin	0.16666666666667	0
bin	0.2	0
bin	0.23333333333333	0
bin	0.26666666666667	0
bin	0.3	0
bin	0.33333333333333	0
bin	0.36666666666667	0
bin	0.4	0
bin	0.43333333333333	0
bin	0.46666666666667	0
bin	0.5	0
statistic scenarioPRJP1.node[2].wlan.radio 	packetErrorRate:histogram
field count 32764
field mean 0.22425489663751
field stddev 0.41094426196431
field sum 7347.4874334313
field sqrsum 7180.5677683088
field min 0
field max 1
attr source  packetErrorRate
attr title  "Packet error rate, histogram"
bin	-INF	8125
bin	-7.5341066718693e-11	0
bin	-6.52955911562e-11	0
bin	-5.5250115593708e-11	0
bin	-4.5204640031216e-11	0
bin	-3.5159164468723e-11	0
bin	-2.5113688906231e-11	0
bin	-1.5068213343739e-11	0
bin	-5.0227377812462e-12	21284
bin	5.0227377812462e-12	99
bin	1.5068213343739e-11	43
bin	2.5113688906231e-11	24
bin	3.5159164468723e-11	23
bin	4.5204640031216e-11	12
bin	5.5250115593708e-11	20
bin	6.52955911562e-11	12
bin	7.5341066718693e-11	10
bin	8.5386542281185e-11	12
bin	9.5432017843677e-11	8
bin	1.0547749340617e-10	10
bin	1.1552296896866e-10	13
bin	1.2556844453115e-10	9
bin	1.3561392009365e-10	4
bin	1.4565939565614e-10	9
bin	1.5570487121863e-10	10
bin	1.6575034678112e-10	8
bin	1.7579582234362e-10	10
bin	1.8584129790611e-10	7
bin	1.958867734686e-10	4
bin	2.0593224903109e-10	4
bin	2.1597772459359e-10	3
bin	2.2602320015608e-10	3001
statistic scenarioPRJP1.node[2].wlan.radio 	minSNIR:histogram
field count 32764
field mean 7768.0081972898
field stddev 50504.120010401
field sum 254511020.576
field sqrsum 85544518374246
field min 0.00013342681673644
field max 2505756.5954744
attr source  minSNIR
attr title  "Min SNIR, histogram"
bin	-INF	0
bin	-81750.590797366	0
bin	-70849.703781324	0
bin	-59948.816765282	0
bin	-49047.92974924	0
bin	-38147.042733198	0
bin	-27246.155717156	0
bin	-16345.268701115	0
bin	-5444.3816850729	29748
bin	5456.505330969	1281
bin	16357.392347011	395
bin	27258.279363053	201
bin	38159.166379094	120
bin	49060.053395136	90
bin	59960.940411178	70
bin	70861.82742722	67
bin	81762.714443262	59
bin	92663.601459303	44
bin	103564.48847535	49
bin	114465.37549139	48
bin	125366.26250743	47
bin	136267.14952347	40
bin	147168.03653951	40
bin	158068.92355555	36
bin	168969.8105716	24
bin	179870.69758764	26
bin	190771.58460368	25
bin	201672.47161972	28
bin	212573.35863576	21
bin	223474.24565181	16
bin	234375.13266785	13
bin	245276.01968389	276
scalar scenarioPRJP1.node[2].lo0.lo 	droppedPkBitError:count 	0
attr interpolationmode  none
attr source  dropPkBitError
attr title  "packets dropped/bit error, count"
scalar scenarioPRJP1.node[2].lo0.lo 	droppedPkBitError:sum(packetBytes) 	0
attr interpolationmode  none
attr source  dropPkBitError
attr title  "packets dropped/bit error, sum(packetBytes)"
scalar scenarioPRJP1.node[2].lo0.lo 	rcvdPkFromHL:count 	2
attr interpolationmode  none
attr source  packetReceivedFromUpper
attr title  "packets received from higher layer, count"
scalar scenarioPRJP1.node[2].lo0.lo 	rcvdPkFromHL:sum(packetBytes) 	112
attr interpolationmode  none
attr source  packetReceivedFromUpper
attr title  "packets received from higher layer, sum(packetBytes)"
scalar scenarioPRJP1.node[2].lo0.lo 	passedUpPk:count 	2
attr interpolationmode  none
attr source  packetSentToUpper
attr title  "packets passed to higher layer, count"
scalar scenarioPRJP1.node[2].lo0.lo 	passedUpPk:sum(packetBytes) 	112
attr interpolationmode  none
attr source  packetSentToUpper
attr title  "packets passed to higher layer, sum(packetBytes)"
scalar scenarioPRJP1.node[16].app 	"Total sent" 	2597
scalar scenarioPRJP1.node[16].app 	"Total received" 	334
scalar scenarioPRJP1.node[16].app 	"Total deleted" 	0
scalar scenarioPRJP1.node[16].app 	dropPk:count 	0
attr interpolationmode  none
attr source  dropPk
attr title  "packets dropped, count"
scalar scenarioPRJP1.node[16].app 	dropPk:sum(packetBytes) 	0
attr interpolationmode  none
attr source  dropPk
attr title  "packets dropped, sum(packetBytes)"
scalar scenarioPRJP1.node[16].app 	outOfOrderPk:count 	0
attr interpolationmode  none
attr source  outOfOrderPk
attr title  "packets received out of order, count"
scalar scenarioPRJP1.node[16].app 	outOfOrderPk:sum(packetBytes) 	0
attr interpolationmode  none
attr source  outOfOrderPk
attr title  "packets received out of order, sum(packetBytes)"
scalar scenarioPRJP1.node[16].app 	rcvdPk:count 	334
attr interpolationmode  none
attr source  rcvdPk
attr title  "packets received, count"
scalar scenarioPRJP1.node[16].app 	rcvdPk:sum(packetBytes) 	171008
attr interpolationmode  none
attr source  rcvdPk
attr title  "packets received, sum(packetBytes)"
statistic scenarioPRJP1.node[16].app 	endToEndDelay:histogram
field count 334
field mean 0.068811490162174
field stddev 0.27557337441798
field sum 22.983037714166
field sqrsum 26.869745074706
field min 0.000945011007
field max 2.287872671533
attr interpolationmode  none
attr source  messageAge(rcvdPk)
attr title  "delay, histogram"
attr unit  s
bin	-INF	0
bin	-1.0273122126975	0
bin	-0.89021124797983	0
bin	-0.75311028326217	0
bin	-0.6160093185445	0
bin	-0.47890835382683	0
bin	-0.34180738910917	0
bin	-0.2047064243915	0
bin	-0.067605459673833	316
bin	0.069495505043833	2
bin	0.2065964697615	1
bin	0.34369743447917	0
bin	0.48079839919683	0
bin	0.6178993639145	1
bin	0.75500032863217	3
bin	0.89210129334983	5
bin	1.0292022580675	2
bin	1.1663032227852	0
bin	1.3034041875028	0
bin	1.4405051522205	1
bin	1.5776061169382	0
bin	1.7147070816558	0
bin	1.8518080463735	0
bin	1.9889090110912	1
bin	2.1260099758088	1
bin	2.2631109405265	1
bin	2.4002119052442	0
bin	2.5373128699618	0
bin	2.6744138346795	0
bin	2.8115147993972	0
bin	2.9486157641148	0
bin	3.0857167288325	0
scalar scenarioPRJP1.node[16].app 	sentPk:count 	2597
attr interpolationmode  none
attr source  sentPk
attr title  "packets sent, count"
scalar scenarioPRJP1.node[16].app 	sentPk:sum(packetBytes) 	1329664
attr interpolationmode  none
attr source  sentPk
attr title  "packets sent, sum(packetBytes)"
scalar scenarioPRJP1.node[16].udp 	droppedPkBadChecksum:count 	0
attr interpolationmode  none
attr title  "packets dropped (checksum error), count"
scalar scenarioPRJP1.node[16].udp 	droppedPkWrongPort:count 	0
attr interpolationmode  none
attr title  "packets dropped (wrong port), count"
scalar scenarioPRJP1.node[16].udp 	passedUpPk:count 	334
attr interpolationmode  none
attr title  "packets passed up, count"
scalar scenarioPRJP1.node[16].udp 	rcvdPk:count 	334
attr interpolationmode  none
attr source  rcvdPk
attr title  "packets received, count"
scalar scenarioPRJP1.node[16].udp 	rcvdPk:sum(packetBytes) 	173680
attr interpolationmode  none
attr source  rcvdPk
attr title  "packets received, sum(packetBytes)"
scalar scenarioPRJP1.node[16].udp 	sentPk:count 	2597
attr interpolationmode  none
attr source  sentPk
attr title  "packets sent, count"
scalar scenarioPRJP1.node[16].udp 	sentPk:sum(packetBytes) 	1350440
attr interpolationmode  none
attr source  sentPk
attr title  "packets sent, sum(packetBytes)"
scalar scenarioPRJP1.node[16].networkLayer.arp 	failedARPResolution:count 	91
attr title  "ARP failed resolutions, count"
scalar scenarioPRJP1.node[16].networkLayer.arp 	completedARPResolution:count 	510
attr title  "ARP completed resolutions, count"
scalar scenarioPRJP1.node[16].networkLayer.arp 	initiatedARPResolution:count 	128
attr title  "ARP initiated resolutions, count"
scalar scenarioPRJP1.node[16].networkLayer.arp 	sentReply:count 	24
attr title  "ARP replies sent, count"
scalar scenarioPRJP1.node[16].networkLayer.arp 	sentReq:count 	345
attr title  "ARP request sent, count"
scalar scenarioPRJP1.node[16].mobility 	startTime 	2.5
scalar scenarioPRJP1.node[16].mobility 	totalTime 	947.5
scalar scenarioPRJP1.node[16].mobility 	stopTime 	950
scalar scenarioPRJP1.node[16].mobility 	minSpeed 	2.4754266169008e-13
scalar scenarioPRJP1.node[16].mobility 	maxSpeed 	17.599524273276
scalar scenarioPRJP1.node[16].mobility 	totalDistance 	8865.0012224795
scalar scenarioPRJP1.node[16].mobility 	totalCO2Emission 	2498.8945232212
scalar scenarioPRJP1.node[16].wlan.mgmt 	dataQueueLen:max 	2
attr interpolationmode  sample-hold
attr title  "data queue length, max"
scalar scenarioPRJP1.node[16].wlan.mgmt 	dataQueueLen:timeavg 	0
attr interpolationmode  sample-hold
attr title  "data queue length, timeavg"
scalar scenarioPRJP1.node[16].wlan.mgmt 	dropPkByQueue:count 	0
attr interpolationmode  none
attr source  dropPkByQueue
attr title  "packets dropped by queue, count"
scalar scenarioPRJP1.node[16].wlan.mgmt 	dropPkByQueue:sum(packetBytes) 	0
attr interpolationmode  none
attr source  dropPkByQueue
attr title  "packets dropped by queue, sum(packetBytes)"
scalar scenarioPRJP1.node[16].wlan.mac 	"number of received packets" 	1427
scalar scenarioPRJP1.node[16].wlan.mac 	"number of collisions" 	6523
scalar scenarioPRJP1.node[16].wlan.mac 	"number of internal collisions" 	2
scalar scenarioPRJP1.node[16].wlan.mac 	"number of retry for AC 0" 	6865
scalar scenarioPRJP1.node[16].wlan.mac 	"number of retry for AC 1" 	112
scalar scenarioPRJP1.node[16].wlan.mac 	"number of retry for AC 2" 	0
scalar scenarioPRJP1.node[16].wlan.mac 	"number of retry for AC 3" 	0
scalar scenarioPRJP1.node[16].wlan.mac 	"sent and received bits" 	21531808
scalar scenarioPRJP1.node[16].wlan.mac 	"sent packet within AC 0" 	288
scalar scenarioPRJP1.node[16].wlan.mac 	"sent packet within AC 1" 	8
scalar scenarioPRJP1.node[16].wlan.mac 	"sent packet within AC 2" 	0
scalar scenarioPRJP1.node[16].wlan.mac 	"sent packet within AC 3" 	0
scalar scenarioPRJP1.node[16].wlan.mac 	"sent in TXOP " 	0
scalar scenarioPRJP1.node[16].wlan.mac 	"sentWithoutRetry AC 0" 	203
scalar scenarioPRJP1.node[16].wlan.mac 	"sentWithoutRetry AC 1" 	5
scalar scenarioPRJP1.node[16].wlan.mac 	"sentWithoutRetry AC 2" 	0
scalar scenarioPRJP1.node[16].wlan.mac 	"sentWithoutRetry AC 3" 	0
scalar scenarioPRJP1.node[16].wlan.mac 	"numGivenUp AC 0" 	1111
scalar scenarioPRJP1.node[16].wlan.mac 	"numGivenUp AC 1" 	18
scalar scenarioPRJP1.node[16].wlan.mac 	"numGivenUp AC 2" 	0
scalar scenarioPRJP1.node[16].wlan.mac 	"numGivenUp AC 3" 	0
scalar scenarioPRJP1.node[16].wlan.mac 	"numDropped AC 0" 	0
scalar scenarioPRJP1.node[16].wlan.mac 	"numDropped AC 1" 	0
scalar scenarioPRJP1.node[16].wlan.mac 	"numDropped AC 2" 	0
scalar scenarioPRJP1.node[16].wlan.mac 	"numDropped AC 3" 	0
scalar scenarioPRJP1.node[16].wlan.mac 	rcvdPkFromLL:count 	25465
attr interpolationmode  none
attr source  packetReceivedFromLower
attr title  "packets received from lower layer, count"
scalar scenarioPRJP1.node[16].wlan.mac 	rcvdPkFromLL:sum(packetBytes) 	14825228
attr interpolationmode  none
attr source  packetReceivedFromLower
attr title  "packets received from lower layer, sum(packetBytes)"
scalar scenarioPRJP1.node[16].wlan.mac 	sentDownPk:count 	12531
attr interpolationmode  none
attr source  packetSentToLower
attr title  "packets sent to lower layer, count"
scalar scenarioPRJP1.node[16].wlan.mac 	sentDownPk:sum(packetBytes) 	7234006
attr interpolationmode  none
attr source  packetSentToLower
attr title  "packets sent to lower layer, sum(packetBytes)"
scalar scenarioPRJP1.node[16].wlan.mac 	rcvdPkFromHL:count 	4129
attr interpolationmode  none
attr source  packetReceivedFromUpper
attr title  "packets received from higher layer, count"
[...]
attr interpolationmode  none
attr source  packetSentToUpper
attr title  "packets passed to higher layer, count"
scalar scenarioPRJP1.node[12].wlan.mac 	passedUpPk:sum(packetBytes) 	6413392
attr interpolationmode  none
attr source  packetSentToUpper
attr title  "packets passed to higher layer, sum(packetBytes)"
statistic scenarioPRJP1.node[12].wlan.radio 	radioChannel:histogram
field count 1
field mean 3
field stddev -nan
field sum 3
field sqrsum 9
field min 3
field max 3
attr interpolationmode  sample-hold
attr source  radioChannelChanged
attr title  "Radio channel, histogram"
bin	-INF	0
bin	2	0
bin	3	1
bin	4	0
scalar scenarioPRJP1.node[12].wlan.radio 	transmissionState:count 	47404
attr interpolationmode  sample-hold
attr source  transmissionStateChanged
attr title  "Radio transmission state, count"
scalar scenarioPRJP1.node[12].wlan.radio 	receptionState:count 	82312
attr interpolationmode  sample-hold
attr source  receptionStateChanged
attr title  "Radio reception state, count"
scalar scenarioPRJP1.node[12].wlan.radio 	radioMode:count 	23704
attr interpolationmode  sample-hold
attr source  radioModeChanged
attr title  "Radio mode, count"
statistic scenarioPRJP1.node[12].wlan.radio 	symbolErrorRate:histogram
field count 0
field mean -nan
field stddev -nan
field sum 0
field sqrsum 0
field min -nan
field max -nan
attr source  symbolErrorRate
attr title  "Symbol error rate, histogram"
bin	-INF	0
bin	-0.5	0
bin	-0.46666666666667	0
bin	-0.43333333333333	0
bin	-0.4	0
bin	-0.36666666666667	0
bin	-0.33333333333333	0
bin	-0.3	0
bin	-0.26666666666667	0
bin	-0.23333333333333	0
bin	-0.2	0
bin	-0.16666666666667	0
bin	-0.13333333333333	0
bin	-0.1	0
bin	-0.066666666666667	0
bin	-0.033333333333333	0
bin	-6.9388939039072e-18	0
bin	0.033333333333333	0
bin	0.066666666666667	0
bin	0.1	0
bin	0.13333333333333	0
bin	0.16666666666667	0
bin	0.2	0
bin	0.23333333333333	0
bin	0.26666666666667	0
bin	0.3	0
bin	0.33333333333333	0
bin	0.36666666666667	0
bin	0.4	0
bin	0.43333333333333	0
bin	0.46666666666667	0
bin	0.5	0
statistic scenarioPRJP1.node[12].wlan.radio 	bitErrorRate:histogram
field count 0
field mean -nan
field stddev -nan
field sum 0
field sqrsum 0
field min -nan
field max -nan
attr source  bitErrorRate
attr title  "Bit error rate, histogram"
bin	-INF	0
bin	-0.5	0
bin	-0.46666666666667	0
bin	-0.43333333333333	0
bin	-0.4	0
bin	-0.36666666666667	0
bin	-0.33333333333333	0
bin	-0.3	0
bin	-0.26666666666667	0
bin	-0.23333333333333	0
bin	-0.2	0
bin	-0.16666666666667	0
bin	-0.13333333333333	0
bin	-0.1	0
bin	-0.066666666666667	0
bin	-0.033333333333333	0
bin	-6.9388939039072e-18	0
bin	0.033333333333333	0
bin	0.066666666666667	0
bin	0.1	0
bin	0.13333333333333	0
bin	0.16666666666667	0
bin	0.2	0
bin	0.23333333333333	0
bin	0.26666666666667	0
bin	0.3	0
bin	0.33333333333333	0
bin	0.36666666666667	0
bin	0.4	0
bin	0.43333333333333	0
bin	0.46666666666667	0
bin	0.5	0
statistic scenarioPRJP1.node[12].wlan.radio 	packetErrorRate:histogram
field count 28185
field mean 0.24235667120908
field stddev 0.4215576615368
field sum 6830.822778028
field sqrsum 6664.0984047207
field min 0
field max 1
attr source  packetErrorRate
attr title  "Packet error rate, histogram"
bin	-INF	0
bin	-0.5	0
bin	-0.46666666666667	0
bin	-0.43333333333333	0
bin	-0.4	0
bin	-0.36666666666667	0
bin	-0.33333333333333	0
bin	-0.3	0
bin	-0.26666666666667	0
bin	-0.23333333333333	0
bin	-0.2	0
bin	-0.16666666666667	0
bin	-0.13333333333333	0
bin	-0.1	0
bin	-0.066666666666667	0
bin	-0.033333333333333	0
bin	-6.9388939039072e-18	20666
bin	0.033333333333333	179
bin	0.066666666666667	102
bin	0.1	65
bin	0.13333333333333	72
bin	0.16666666666667	38
bin	0.2	41
bin	0.23333333333333	35
bin	0.26666666666667	40
bin	0.3	28
bin	0.33333333333333	43
bin	0.36666666666667	31
bin	0.4	27
bin	0.43333333333333	28
bin	0.46666666666667	26
bin	0.5	6764
statistic scenarioPRJP1.node[12].wlan.radio 	minSNIR:histogram
field count 28185
field mean 4277.5554312593
field stddev 31448.363502967
field sum 120562899.83004
field sqrsum 28389678283720
field min 0.00017058546278929
field max 961749.96527876
attr source  minSNIR
attr title  "Min SNIR, histogram"
bin	-INF	0
bin	-40767.279863275	0
bin	-35330.622528188	0
bin	-29893.965193102	0
bin	-24457.307858016	0
bin	-19020.650522929	0
bin	-13583.993187843	0
bin	-8147.3358527568	0
bin	-2710.6785176705	25815
bin	2725.9788174158	885
bin	8162.6361525021	369
bin	13599.293487588	195
bin	19035.950822675	147
bin	24472.608157761	85
bin	29909.265492847	59
bin	35345.922827934	38
bin	40782.58016302	42
bin	46219.237498106	44
bin	51655.894833193	28
bin	57092.552168279	31
bin	62529.209503365	28
bin	67965.866838452	21
bin	73402.524173538	26
bin	78839.181508624	24
bin	84275.83884371	17
bin	89712.496178797	16
bin	95149.153513883	11
bin	100585.81084897	11
bin	106022.46818406	5
bin	111459.12551914	12
bin	116895.78285423	10
bin	122332.44018931	266
scalar scenarioPRJP1.node[12].lo0.lo 	droppedPkBitError:count 	0
attr interpolationmode  none
attr source  dropPkBitError
attr title  "packets dropped/bit error, count"
scalar scenarioPRJP1.node[12].lo0.lo 	droppedPkBitError:sum(packetBytes) 	0
attr interpolationmode  none
attr source  dropPkBitError
attr title  "packets dropped/bit error, sum(packetBytes)"
scalar scenarioPRJP1.node[12].lo0.lo 	rcvdPkFromHL:count 	1
attr interpolationmode  none
attr source  packetReceivedFromUpper
attr title  "packets received from higher layer, count"
scalar scenarioPRJP1.node[12].lo0.lo 	rcvdPkFromHL:sum(packetBytes) 	56
attr interpolationmode  none
attr source  packetReceivedFromUpper
attr title  "packets received from higher layer, sum(packetBytes)"
scalar scenarioPRJP1.node[12].lo0.lo 	passedUpPk:count 	1
attr interpolationmode  none
attr source  packetSentToUpper
attr title  "packets passed to higher layer, count"
scalar scenarioPRJP1.node[12].lo0.lo 	passedUpPk:sum(packetBytes) 	56
attr interpolationmode  none
attr source  packetSentToUpper
attr title  "packets passed to higher layer, sum(packetBytes)"
scalar scenarioPRJP1.node[22].app 	"Total sent" 	2605
scalar scenarioPRJP1.node[22].app 	"Total received" 	297
scalar scenarioPRJP1.node[22].app 	"Total deleted" 	0
scalar scenarioPRJP1.node[22].app 	dropPk:count 	0
attr interpolationmode  none
attr source  dropPk
attr title  "packets dropped, count"
scalar scenarioPRJP1.node[22].app 	dropPk:sum(packetBytes) 	0
attr interpolationmode  none
attr source  dropPk
attr title  "packets dropped, sum(packetBytes)"
scalar scenarioPRJP1.node[22].app 	outOfOrderPk:count 	0
attr interpolationmode  none
attr source  outOfOrderPk
attr title  "packets received out of order, count"
scalar scenarioPRJP1.node[22].app 	outOfOrderPk:sum(packetBytes) 	0
attr interpolationmode  none
attr source  outOfOrderPk
attr title  "packets received out of order, sum(packetBytes)"
scalar scenarioPRJP1.node[22].app 	rcvdPk:count 	297
attr interpolationmode  none
attr source  rcvdPk
attr title  "packets received, count"
scalar scenarioPRJP1.node[22].app 	rcvdPk:sum(packetBytes) 	152064
attr interpolationmode  none
attr source  rcvdPk
attr title  "packets received, sum(packetBytes)"
statistic scenarioPRJP1.node[22].app 	endToEndDelay:histogram
field count 297
field mean 0.096598676704869
field stddev 0.34996702755074
field sum 28.689806981346
field sqrsum 39.024565819636
field min 0.000945011007
field max 2.044278917301
attr interpolationmode  none
attr source  messageAge(rcvdPk)
attr title  "delay, histogram"
attr unit  s
bin	-INF	0
bin	-1.008870850267	0
bin	-0.87422873543047	0
bin	-0.73958662059393	0
bin	-0.6049445057574	0
bin	-0.47030239092087	0
bin	-0.33566027608433	0
bin	-0.2010181612478	0
bin	-0.066376046411267	277
bin	0.068266068425267	0
bin	0.2029081832618	1
bin	0.33755029809833	0
bin	0.47219241293487	3
bin	0.6068345277714	0
bin	0.74147664260793	3
bin	0.87611875744447	2
bin	1.010760872281	3
bin	1.1454029871175	0
bin	1.2800451019541	0
bin	1.4146872167906	0
bin	1.5493293316271	0
bin	1.6839714464637	2
bin	1.8186135613002	0
bin	1.9532556761367	6
bin	2.0878977909733	0
bin	2.2225399058098	0
bin	2.3571820206463	0
bin	2.4918241354829	0
bin	2.6264662503194	0
bin	2.7611083651559	0
bin	2.8957504799925	0
bin	3.030392594829	0
scalar scenarioPRJP1.node[22].app 	sentPk:count 	2605
attr interpolationmode  none
attr source  sentPk
attr title  "packets sent, count"
scalar scenarioPRJP1.node[22].app 	sentPk:sum(packetBytes) 	1333760
attr interpolationmode  none
attr source  sentPk
attr title  "packets sent, sum(packetBytes)"
scalar scenarioPRJP1.node[22].udp 	droppedPkBadChecksum:count 	0
attr interpolationmode  none
attr title  "packets dropped (checksum error), count"
scalar scenarioPRJP1.node[22].udp 	droppedPkWrongPort:count 	0
attr interpolationmode  none
attr title  "packets dropped (wrong port), count"
scalar scenarioPRJP1.node[22].udp 	passedUpPk:count 	297
attr interpolationmode  none
attr title  "packets passed up, count"
scalar scenarioPRJP1.node[22].udp 	rcvdPk:count 	297
attr interpolationmode  none
attr source  rcvdPk
attr title  "packets received, count"
scalar scenarioPRJP1.node[22].udp 	rcvdPk:sum(packetBytes) 	154440
attr interpolationmode  none
attr source  rcvdPk
attr title  "packets received, sum(packetBytes)"
scalar scenarioPRJP1.node[22].udp 	sentPk:count 	2605
attr interpolationmode  none
attr source  sentPk
attr title  "packets sent, count"
scalar scenarioPRJP1.node[22].udp 	sentPk:sum(packetBytes) 	1354600
attr interpolationmode  none
attr source  sentPk
attr title  "packets sent, sum(packetBytes)"
scalar scenarioPRJP1.node[22].networkLayer.arp 	failedARPResolution:count 	70
attr title  "ARP failed resolutions, count"
scalar scenarioPRJP1.node[22].networkLayer.arp 	completedARPResolution:count 	318
attr title  "ARP completed resolutions, count"
scalar scenarioPRJP1.node[22].networkLayer.arp 	initiatedARPResolution:count 	101
attr title  "ARP initiated resolutions, count"
scalar scenarioPRJP1.node[22].networkLayer.arp 	sentReply:count 	30
attr title  "ARP replies sent, count"
scalar scenarioPRJP1.node[22].networkLayer.arp 	sentReq:count 	269
attr title  "ARP request sent, count"
scalar scenarioPRJP1.node[22].mobility 	startTime 	2.5
scalar scenarioPRJP1.node[22].mobility 	totalTime 	947.5
scalar scenarioPRJP1.node[22].mobility 	stopTime 	950
scalar scenarioPRJP1.node[22].mobility 	minSpeed 	2.4755002718028e-13
scalar scenarioPRJP1.node[22].mobility 	maxSpeed 	17.893703797851
scalar scenarioPRJP1.node[22].mobility 	totalDistance 	10738.99504158
scalar scenarioPRJP1.node[22].mobility 	totalCO2Emission 	2748.1982966186
scalar scenarioPRJP1.node[22].wlan.mgmt 	dataQueueLen:max 	2
attr interpolationmode  sample-hold
attr title  "data queue length, max"
scalar scenarioPRJP1.node[22].wlan.mgmt 	dataQueueLen:timeavg 	0
attr interpolationmode  sample-hold
attr title  "data queue length, timeavg"
scalar scenarioPRJP1.node[22].wlan.mgmt 	dropPkByQueue:count 	0
attr interpolationmode  none
attr source  dropPkByQueue
attr title  "packets dropped by queue, count"
scalar scenarioPRJP1.node[22].wlan.mgmt 	dropPkByQueue:sum(packetBytes) 	0
attr interpolationmode  none
attr source  dropPkByQueue
attr title  "packets dropped by queue, sum(packetBytes)"
scalar scenarioPRJP1.node[22].wlan.mac 	"number of received packets" 	981
scalar scenarioPRJP1.node[22].wlan.mac 	"number of collisions" 	5014
scalar scenarioPRJP1.node[22].wlan.mac 	"number of internal collisions" 	1
scalar scenarioPRJP1.node[22].wlan.mac 	"number of retry for AC 0" 	4680
scalar scenarioPRJP1.node[22].wlan.mac 	"number of retry for AC 1" 	42
scalar scenarioPRJP1.node[22].wlan.mac 	"number of retry for AC 2" 	0
scalar scenarioPRJP1.node[22].wlan.mac 	"number of retry for AC 3" 	0
scalar scenarioPRJP1.node[22].wlan.mac 	"sent and received bits" 	17593024
scalar scenarioPRJP1.node[22].wlan.mac 	"sent packet within AC 0" 	225
scalar scenarioPRJP1.node[22].wlan.mac 	"sent packet within AC 1" 	7
scalar scenarioPRJP1.node[22].wlan.mac 	"sent packet within AC 2" 	0
scalar scenarioPRJP1.node[22].wlan.mac 	"sent packet within AC 3" 	0
scalar scenarioPRJP1.node[22].wlan.mac 	"sent in TXOP " 	0
scalar scenarioPRJP1.node[22].wlan.mac 	"sentWithoutRetry AC 0" 	171
scalar scenarioPRJP1.node[22].wlan.mac 	"sentWithoutRetry AC 1" 	7
scalar scenarioPRJP1.node[22].wlan.mac 	"sentWithoutRetry AC 2" 	0
scalar scenarioPRJP1.node[22].wlan.mac 	"sentWithoutRetry AC 3" 	0
scalar scenarioPRJP1.node[22].wlan.mac 	"numGivenUp AC 0" 	762
scalar scenarioPRJP1.node[22].wlan.mac 	"numGivenUp AC 1" 	7
scalar scenarioPRJP1.node[22].wlan.mac 	"numGivenUp AC 2" 	0
scalar scenarioPRJP1.node[22].wlan.mac 	"numGivenUp AC 3" 	0
scalar scenarioPRJP1.node[22].wlan.mac 	"numDropped AC 0" 	0
scalar scenarioPRJP1.node[22].wlan.mac 	"numDropped AC 1" 	0
scalar scenarioPRJP1.node[22].wlan.mac 	"numDropped AC 2" 	0
scalar scenarioPRJP1.node[22].wlan.mac 	"numDropped AC 3" 	0
scalar scenarioPRJP1.node[22].wlan.mac 	rcvdPkFromLL:count 	22326
attr interpolationmode  none
attr source  packetReceivedFromLower
attr title  "packets received from lower layer, count"
scalar scenarioPRJP1.node[22].wlan.mac 	rcvdPkFromLL:sum(packetBytes) 	12963676
attr interpolationmode  none
attr source  packetReceivedFromLower
attr title  "packets received from lower layer, sum(packetBytes)"
scalar scenarioPRJP1.node[22].wlan.mac 	sentDownPk:count 	8904
attr interpolationmode  none
attr source  packetSentToLower
attr title  "packets sent to lower layer, count"
scalar scenarioPRJP1.node[22].wlan.mac 	sentDownPk:sum(packetBytes) 	5258202
attr interpolationmode  none
attr source  packetSentToLower
attr title  "packets sent to lower layer, sum(packetBytes)"
scalar scenarioPRJP1.node[22].wlan.mac 	rcvdPkFromHL:count 	3202
attr interpolationmode  none
attr source  packetReceivedFromUpper
attr title  "packets received from higher layer, count"
scalar scenarioPRJP1.node[22].wlan.mac 	rcvdPkFromHL:sum(packetBytes) 	2625372
attr interpolationmode  none
attr source  packetReceivedFromUpper
attr title  "packets received from higher layer, sum(packetBytes)"
scalar scenarioPRJP1.node[22].wlan.mac 	passedUpPk:count 	5241
attr interpolationmode  none
attr source  packetSentToUpper
attr title  "packets passed to higher layer, count"
scalar scenarioPRJP1.node[22].wlan.mac 	passedUpPk:sum(packetBytes) 	4956260
attr interpolationmode  none
attr source  packetSentToUpper
attr title  "packets passed to higher layer, sum(packetBytes)"
statistic scenarioPRJP1.node[22].wlan.radio 	radioChannel:histogram
field count 1
field mean 3
field stddev -nan
field sum 3
field sqrsum 9
field min 3
field max 3
attr interpolationmode  sample-hold
attr source  radioChannelChanged
attr title  "Radio channel, histogram"
bin	-INF	0
bin	2	0
bin	3	1
bin	4	0
scalar scenarioPRJP1.node[22].wlan.radio 	transmissionState:count 	35616
attr interpolationmode  sample-hold
attr source  transmissionStateChanged
attr title  "Radio transmission state, count"
scalar scenarioPRJP1.node[22].wlan.radio 	receptionState:count 	63758
attr interpolationmode  sample-hold
attr source  receptionStateChanged
attr title  "Radio reception state, count"
scalar scenarioPRJP1.node[22].wlan.radio 	radioMode:count 	17810
attr interpolationmode  sample-hold
attr source  radioModeChanged
attr title  "Radio mode, count"
statistic scenarioPRJP1.node[22].wlan.radio 	symbolErrorRate:histogram
field count 0
field mean -nan
field stddev -nan
field sum 0
field sqrsum 0
field min -nan
field max -nan
attr source  symbolErrorRate
attr title  "Symbol error rate, histogram"
bin	-INF	0
bin	-0.5	0
bin	-0.46666666666667	0
bin	-0.43333333333333	0
bin	-0.4	0
bin	-0.36666666666667	0
bin	-0.33333333333333	0
bin	-0.3	0
bin	-0.26666666666667	0
bin	-0.23333333333333	0
bin	-0.2	0
bin	-0.16666666666667	0
bin	-0.13333333333333	0
bin	-0.1	0
bin	-0.066666666666667	0
bin	-0.033333333333333	0
bin	-6.9388939039072e-18	0
bin	0.033333333333333	0
bin	0.066666666666667	0
bin	0.1	0
bin	0.13333333333333	0
bin	0.16666666666667	0
bin	0.2	0
bin	0.23333333333333	0
bin	0.26666666666667	0
bin	0.3	0
bin	0.33333333333333	0
bin	0.36666666666667	0
bin	0.4	0
bin	0.43333333333333	0
bin	0.46666666666667	0
bin	0.5	0
statistic scenarioPRJP1.node[22].wlan.radio 	bitErrorRate:histogram
field count 0
field mean -nan
field stddev -nan
field sum 0
field sqrsum 0
field min -nan
field max -nan
attr source  bitErrorRate
attr title  "Bit error rate, histogram"
bin	-INF	0
bin	-0.5	0
bin	-0.46666666666667	0
bin	-0.43333333333333	0
bin	-0.4	0
bin	-0.36666666666667	0
bin	-0.33333333333333	0
bin	-0.3	0
bin	-0.26666666666667	0
bin	-0.23333333333333	0
bin	-0.2	0
bin	-0.16666666666667	0
bin	-0.13333333333333	0
bin	-0.1	0
bin	-0.066666666666667	0
bin	-0.033333333333333	0
bin	-6.9388939039072e-18	0
bin	0.033333333333333	0
bin	0.066666666666667	0
bin	0.1	0
bin	0.13333333333333	0
bin	0.16666666666667	0
bin	0.2	0
bin	0.23333333333333	0
bin	0.26666666666667	0
bin	0.3	0
bin	0.33333333333333	0
bin	0.36666666666667	0
bin	0.4	0
bin	0.43333333333333	0
bin	0.46666666666667	0
bin	0.5	0
statistic scenarioPRJP1.node[22].wlan.radio 	packetErrorRate:histogram
field count 22326
field mean 0.2199890623112
field stddev 0.40660402623924
field sum 4911.4758051598
field sqrsum 4771.3925294284
field min 0
field max 1
attr source  packetErrorRate
attr title  "Packet error rate, histogram"
bin	-INF	0
bin	-0.5	0
bin	-0.43333333333333	0
bin	-0.36666666666667	0
bin	-0.3	0
bin	-0.23333333333333	0
bin	-0.16666666666667	0
bin	-0.1	0
bin	-0.033333333333333	16866
bin	0.033333333333333	220
bin	0.1	98
bin	0.16666666666667	58
bin	0.23333333333333	65
bin	0.3	54
bin	0.36666666666667	41
bin	0.43333333333333	41
bin	0.5	56
bin	0.56666666666667	42
bin	0.63333333333333	38
bin	0.7	42
bin	0.76666666666667	48
bin	0.83333333333333	28
bin	0.9	67
bin	0.96666666666667	4562
bin	1.0333333333333	0
bin	1.1	0
bin	1.1666666666667	0
bin	1.2333333333333	0
bin	1.3	0
bin	1.3666666666667	0
bin	1.4333333333333	0
bin	1.5	0
statistic scenarioPRJP1.node[22].wlan.radio 	minSNIR:histogram
field count 22326
field mean 4843.8419758916
field stddev 35577.067426884
field sum 108143615.95376
field sqrsum 28781202084893
field min 8.1891478160559e-05
field max 1367567.4950342
attr source  minSNIR
attr title  "Min SNIR, histogram"
bin	-INF	0
bin	-22927.159628216	0
bin	-19870.187035057	0
bin	-16813.214441897	0
bin	-13756.241848737	0
bin	-10699.269255578	0
bin	-7642.2966624182	0
bin	-4585.3240692586	0
bin	-1528.3514760989	19704
bin	1528.6211170607	986
bin	4585.5937102203	348
bin	7642.5663033799	184
bin	10699.53889654	156
bin	13756.511489699	106
bin	16813.484082859	73
bin	19870.456676018	50
bin	22927.429269178	53
bin	25984.401862338	43
bin	29041.374455497	38
bin	32098.347048657	20
bin	35155.319641817	32
bin	38212.292234976	25
bin	41269.264828136	19
bin	44326.237421295	20
bin	47383.210014455	16
bin	50440.182607615	20
bin	53497.155200774	10
bin	56554.127793934	8
bin	59611.100387094	14
bin	62668.072980253	10
bin	65725.045573413	16
bin	68782.018166572	375
scalar scenarioPRJP1.node[22].lo0.lo 	droppedPkBitError:count 	0
attr interpolationmode  none
attr source  dropPkBitError
attr title  "packets dropped/bit error, count"
scalar scenarioPRJP1.node[22].lo0.lo 	droppedPkBitError:sum(packetBytes) 	0
attr interpolationmode  none
attr source  dropPkBitError
attr title  "packets dropped/bit error, sum(packetBytes)"
scalar scenarioPRJP1.node[22].lo0.lo 	rcvdPkFromHL:count 	1
attr interpolationmode  none
attr source  packetReceivedFromUpper
attr title  "packets received from higher layer, count"
scalar scenarioPRJP1.node[22].lo0.lo 	rcvdPkFromHL:sum(packetBytes) 	56
attr interpolationmode  none
attr source  packetReceivedFromUpper
attr title  "packets received from higher layer, sum(packetBytes)"
scalar scenarioPRJP1.node[22].lo0.lo 	passedUpPk:count 	1
attr interpolationmode  none
attr source  packetSentToUpper
attr title  "packets passed to higher layer, count"
scalar scenarioPRJP1.node[22].lo0.lo 	passedUpPk:sum(packetBytes) 	56
attr interpolationmode  none
attr source  packetSentToUpper
attr title  "packets passed to higher layer, sum(packetBytes)"
