version 2
run DSRUU-FS-50n-21-20150623-16:16:41-17900
attr configname DSRUU-FS-50n
attr datetime 20150623-16:16:41
attr experiment DSRUU-FS-50n
attr inifile omnetpp.ini
attr iterationvars ""
attr iterationvars2 $repetition=21
attr measurement ""
attr network Prj_Part1_propag.scenarioPRJP1
attr processid 17900
attr repetition 21
attr replication #21
attr resultdir results
attr runnumber 21
attr seedset 21

scalar scenarioPRJP1.radioMedium.propagation 	"Arrival computation count" 	282102114
scalar scenarioPRJP1.radioMedium 	"transmission count" 	5757186
scalar scenarioPRJP1.radioMedium 	"radio frame send count" 	282102114
scalar scenarioPRJP1.radioMedium 	"reception computation count" 	278429687
scalar scenarioPRJP1.radioMedium 	"interference computation count" 	737219980
scalar scenarioPRJP1.radioMedium 	"reception decision computation count" 	24603385
scalar scenarioPRJP1.radioMedium 	"listening decision computation count" 	441022253
scalar scenarioPRJP1.radioMedium 	"reception cache hit" 	86.727640949598
attr unit  %
scalar scenarioPRJP1.radioMedium 	"interference cache hit" 	50
attr unit  %
scalar scenarioPRJP1.radioMedium 	"noise cache hit" 	0
attr unit  %
scalar scenarioPRJP1.radioMedium 	"snir cache hit" 	0
attr unit  %
scalar scenarioPRJP1.radioMedium 	"reception decision cache hit" 	0
attr unit  %
scalar scenarioPRJP1.node[0].app 	"Total sent" 	5017
scalar scenarioPRJP1.node[0].app 	"Total received" 	554
scalar scenarioPRJP1.node[0].app 	"Total deleted" 	40
scalar scenarioPRJP1.node[0].app 	dropPk:count 	40
attr interpolationmode  none
attr source  dropPk
attr title  "packets dropped, count"
scalar scenarioPRJP1.node[0].app 	dropPk:sum(packetBytes) 	20480
attr interpolationmode  none
attr source  dropPk
attr title  "packets dropped, sum(packetBytes)"
scalar scenarioPRJP1.node[0].app 	outOfOrderPk:count 	44
attr interpolationmode  none
attr source  outOfOrderPk
attr title  "packets received out of order, count"
scalar scenarioPRJP1.node[0].app 	outOfOrderPk:sum(packetBytes) 	22528
attr interpolationmode  none
attr source  outOfOrderPk
attr title  "packets received out of order, sum(packetBytes)"
scalar scenarioPRJP1.node[0].app 	rcvdPk:count 	554
attr interpolationmode  none
attr source  rcvdPk
attr title  "packets received, count"
scalar scenarioPRJP1.node[0].app 	rcvdPk:sum(packetBytes) 	283648
attr interpolationmode  none
attr source  rcvdPk
attr title  "packets received, sum(packetBytes)"
statistic scenarioPRJP1.node[0].app 	endToEndDelay:histogram
field count 554
field mean 3.0944994683311
field stddev 5.1535736270738
field sum 1714.3527054554
field sqrsum 19992.368120271
field min 0.000910149675
field max 19.927704789289
attr interpolationmode  none
attr source  messageAge(rcvdPk)
attr title  "delay, histogram"
attr unit  s
bin	-INF	0
bin	-9.6637374090295	0
bin	-8.3751165028152	0
bin	-7.0864955966008	0
bin	-5.7978746903865	0
bin	-4.5092537841722	0
bin	-3.2206328779578	0
bin	-1.9320119717435	0
bin	-0.64339106552917	291
bin	0.64522984068517	100
bin	1.9338507468995	24
bin	3.2224716531138	17
bin	4.5110925593282	12
bin	5.7997134655425	10
bin	7.0883343717568	16
bin	8.3769552779712	6
bin	9.6655761841855	10
bin	10.9541970904	12
bin	12.242817996614	7
bin	13.531438902829	11
bin	14.820059809043	12
bin	16.108680715257	11
bin	17.397301621471	6
bin	18.685922527686	9
bin	19.9745434339	0
bin	21.263164340114	0
bin	22.551785246329	0
bin	23.840406152543	0
bin	25.129027058757	0
bin	26.417647964972	0
bin	27.706268871186	0
bin	28.9948897774	0
scalar scenarioPRJP1.node[0].app 	sentPk:count 	5017
attr interpolationmode  none
attr source  sentPk
attr title  "packets sent, count"
scalar scenarioPRJP1.node[0].app 	sentPk:sum(packetBytes) 	2568704
attr interpolationmode  none
attr source  sentPk
attr title  "packets sent, sum(packetBytes)"
scalar scenarioPRJP1.node[0].udp 	droppedPkBadChecksum:count 	0
attr interpolationmode  none
attr title  "packets dropped (checksum error), count"
scalar scenarioPRJP1.node[0].udp 	droppedPkWrongPort:count 	1
attr interpolationmode  none
attr title  "packets dropped (wrong port), count"
scalar scenarioPRJP1.node[0].udp 	passedUpPk:count 	638
attr interpolationmode  none
attr title  "packets passed up, count"
scalar scenarioPRJP1.node[0].udp 	rcvdPk:count 	639
attr interpolationmode  none
attr source  rcvdPk
attr title  "packets received, count"
scalar scenarioPRJP1.node[0].udp 	rcvdPk:sum(packetBytes) 	332280
attr interpolationmode  none
attr source  rcvdPk
attr title  "packets received, sum(packetBytes)"
scalar scenarioPRJP1.node[0].udp 	sentPk:count 	5017
attr interpolationmode  none
attr source  sentPk
attr title  "packets sent, count"
scalar scenarioPRJP1.node[0].udp 	sentPk:sum(packetBytes) 	2608840
attr interpolationmode  none
attr source  sentPk
attr title  "packets sent, sum(packetBytes)"
scalar scenarioPRJP1.node[0].networkLayer.arp 	failedARPResolution:count 	35
attr title  "ARP failed resolutions, count"
scalar scenarioPRJP1.node[0].networkLayer.arp 	completedARPResolution:count 	833
attr title  "ARP completed resolutions, count"
scalar scenarioPRJP1.node[0].networkLayer.arp 	initiatedARPResolution:count 	120
attr title  "ARP initiated resolutions, count"
scalar scenarioPRJP1.node[0].networkLayer.arp 	sentReply:count 	95
attr title  "ARP replies sent, count"
scalar scenarioPRJP1.node[0].networkLayer.arp 	sentReq:count 	239
attr title  "ARP request sent, count"
scalar scenarioPRJP1.node[0].mobility 	startTime 	0.1
scalar scenarioPRJP1.node[0].mobility 	totalTime 	1899.9
scalar scenarioPRJP1.node[0].mobility 	stopTime 	1900
scalar scenarioPRJP1.node[0].mobility 	minSpeed 	2.4754282682733e-13
scalar scenarioPRJP1.node[0].mobility 	maxSpeed 	18.233894016051
scalar scenarioPRJP1.node[0].mobility 	totalDistance 	19054.127739608
scalar scenarioPRJP1.node[0].mobility 	totalCO2Emission 	5339.1263573032
scalar scenarioPRJP1.node[0].wlan.mgmt 	dataQueueLen:max 	35
attr interpolationmode  sample-hold
attr title  "data queue length, max"
scalar scenarioPRJP1.node[0].wlan.mgmt 	dataQueueLen:timeavg 	0
attr interpolationmode  sample-hold
attr title  "data queue length, timeavg"
scalar scenarioPRJP1.node[0].wlan.mgmt 	dropPkByQueue:count 	0
attr interpolationmode  none
attr source  dropPkByQueue
attr title  "packets dropped by queue, count"
scalar scenarioPRJP1.node[0].wlan.mgmt 	dropPkByQueue:sum(packetBytes) 	0
attr interpolationmode  none
attr source  dropPkByQueue
attr title  "packets dropped by queue, sum(packetBytes)"
scalar scenarioPRJP1.node[0].wlan.mac 	"number of received packets" 	17163
scalar scenarioPRJP1.node[0].wlan.mac 	"number of collisions" 	121753
scalar scenarioPRJP1.node[0].wlan.mac 	"number of internal collisions" 	1
scalar scenarioPRJP1.node[0].wlan.mac 	"number of retry for AC 0" 	46637
scalar scenarioPRJP1.node[0].wlan.mac 	"number of retry for AC 1" 	85
scalar scenarioPRJP1.node[0].wlan.mac 	"number of retry for AC 2" 	0
scalar scenarioPRJP1.node[0].wlan.mac 	"number of retry for AC 3" 	0
scalar scenarioPRJP1.node[0].wlan.mac 	"sent and received bits" 	53318656
scalar scenarioPRJP1.node[0].wlan.mac 	"sent packet within AC 0" 	16533
scalar scenarioPRJP1.node[0].wlan.mac 	"sent packet within AC 1" 	44
scalar scenarioPRJP1.node[0].wlan.mac 	"sent packet within AC 2" 	0
scalar scenarioPRJP1.node[0].wlan.mac 	"sent packet within AC 3" 	0
scalar scenarioPRJP1.node[0].wlan.mac 	"sent in TXOP " 	0
scalar scenarioPRJP1.node[0].wlan.mac 	"sentWithoutRetry AC 0" 	12417
scalar scenarioPRJP1.node[0].wlan.mac 	"sentWithoutRetry AC 1" 	37
scalar scenarioPRJP1.node[0].wlan.mac 	"sentWithoutRetry AC 2" 	0
scalar scenarioPRJP1.node[0].wlan.mac 	"sentWithoutRetry AC 3" 	0
scalar scenarioPRJP1.node[0].wlan.mac 	"numGivenUp AC 0" 	5940
scalar scenarioPRJP1.node[0].wlan.mac 	"numGivenUp AC 1" 	12
scalar scenarioPRJP1.node[0].wlan.mac 	"numGivenUp AC 2" 	0
scalar scenarioPRJP1.node[0].wlan.mac 	"numGivenUp AC 3" 	0
scalar scenarioPRJP1.node[0].wlan.mac 	"numDropped AC 0" 	0
scalar scenarioPRJP1.node[0].wlan.mac 	"numDropped AC 1" 	0
scalar scenarioPRJP1.node[0].wlan.mac 	"numDropped AC 2" 	0
scalar scenarioPRJP1.node[0].wlan.mac 	"numDropped AC 3" 	0
scalar scenarioPRJP1.node[0].wlan.mac 	rcvdPkFromLL:count 	459172
attr interpolationmode  none
attr source  packetReceivedFromLower
attr title  "packets received from lower layer, count"
scalar scenarioPRJP1.node[0].wlan.mac 	rcvdPkFromLL:sum(packetBytes) 	128978744
attr interpolationmode  none
attr source  packetReceivedFromLower
attr title  "packets received from lower layer, sum(packetBytes)"
scalar scenarioPRJP1.node[0].wlan.mac 	sentDownPk:count 	110668
attr interpolationmode  none
attr source  packetSentToLower
attr title  "packets sent to lower layer, count"
scalar scenarioPRJP1.node[0].wlan.mac 	sentDownPk:sum(packetBytes) 	30664266
attr interpolationmode  none
attr source  packetSentToLower
attr title  "packets sent to lower layer, sum(packetBytes)"
scalar scenarioPRJP1.node[0].wlan.mac 	rcvdPkFromHL:count 	46784
attr interpolationmode  none
attr source  packetReceivedFromUpper
attr title  "packets received from higher layer, count"
scalar scenarioPRJP1.node[0].wlan.mac 	rcvdPkFromHL:sum(packetBytes) 	9480004
attr interpolationmode  none
attr source  packetReceivedFromUpper
attr title  "packets received from higher layer, sum(packetBytes)"
scalar scenarioPRJP1.node[0].wlan.mac 	passedUpPk:count 	77124
attr interpolationmode  none
attr source  packetSentToUpper
attr title  "packets passed to higher layer, count"
scalar scenarioPRJP1.node[0].wlan.mac 	passedUpPk:sum(packetBytes) 	9389984
attr interpolationmode  none
attr source  packetSentToUpper
attr title  "packets passed to higher layer, sum(packetBytes)"
statistic scenarioPRJP1.node[0].wlan.radio 	radioChannel:histogram
field count 1
field mean 3
field stddev -nan
field sum 3
field sqrsum 9
field min 3
field max 3
attr interpolationmode  sample-hold
attr source  radioChannelChanged
attr title  "Radio channel, histogram"
bin	-INF	0
bin	2	0
bin	3	1
bin	4	0
scalar scenarioPRJP1.node[0].wlan.radio 	transmissionState:count 	442672
attr interpolationmode  sample-hold
attr source  transmissionStateChanged
attr title  "Radio transmission state, count"
scalar scenarioPRJP1.node[0].wlan.radio 	receptionState:count 	2023941
attr interpolationmode  sample-hold
attr source  receptionStateChanged
attr title  "Radio reception state, count"
scalar scenarioPRJP1.node[0].wlan.radio 	radioMode:count 	221338
attr interpolationmode  sample-hold
attr source  radioModeChanged
attr title  "Radio mode, count"
statistic scenarioPRJP1.node[0].wlan.radio 	symbolErrorRate:histogram
field count 0
field mean -nan
field stddev -nan
field sum 0
field sqrsum 0
field min -nan
field max -nan
attr source  symbolErrorRate
attr title  "Symbol error rate, histogram"
bin	-INF	0
bin	-0.5	0
bin	-0.46666666666667	0
bin	-0.43333333333333	0
bin	-0.4	0
bin	-0.36666666666667	0
bin	-0.33333333333333	0
bin	-0.3	0
bin	-0.26666666666667	0
bin	-0.23333333333333	0
bin	-0.2	0
bin	-0.16666666666667	0
bin	-0.13333333333333	0
bin	-0.1	0
bin	-0.066666666666667	0
bin	-0.033333333333333	0
bin	0	0
bin	0.033333333333333	0
bin	0.066666666666667	0
bin	0.1	0
bin	0.13333333333333	0
bin	0.16666666666667	0
bin	0.2	0
bin	0.23333333333333	0
bin	0.26666666666667	0
bin	0.3	0
bin	0.33333333333333	0
bin	0.36666666666667	0
bin	0.4	0
bin	0.43333333333333	0
bin	0.46666666666667	0
bin	0.5	0
statistic scenarioPRJP1.node[0].wlan.radio 	bitErrorRate:histogram
field count 0
field mean -nan
field stddev -nan
field sum 0
field sqrsum 0
field min -nan
field max -nan
attr source  bitErrorRate
attr title  "Bit error rate, histogram"
bin	-INF	0
bin	-0.5	0
bin	-0.46666666666667	0
bin	-0.43333333333333	0
bin	-0.4	0
bin	-0.36666666666667	0
bin	-0.33333333333333	0
bin	-0.3	0
bin	-0.26666666666667	0
bin	-0.23333333333333	0
bin	-0.2	0
bin	-0.16666666666667	0
bin	-0.13333333333333	0
bin	-0.1	0
bin	-0.066666666666667	0
bin	-0.033333333333333	0
bin	0	0
bin	0.033333333333333	0
bin	0.066666666666667	0
bin	0.1	0
bin	0.13333333333333	0
bin	0.16666666666667	0
bin	0.2	0
bin	0.23333333333333	0
bin	0.26666666666667	0
bin	0.3	0
bin	0.33333333333333	0
bin	0.36666666666667	0
bin	0.4	0
bin	0.43333333333333	0
bin	0.46666666666667	0
bin	0.5	0
statistic scenarioPRJP1.node[0].wlan.radio 	packetErrorRate:histogram
field count 459172
field mean 0.24950875396611
field stddev 0.42241798770544
field sum 114567.43357613
field sqrsum 110518.65327495
field min 0
field max 1
attr source  packetErrorRate
attr title  "Packet error rate, histogram"
bin	-INF	0
bin	-0.5	0
bin	-0.43333333333333	0
bin	-0.36666666666667	0
bin	-0.3	0
bin	-0.23333333333333	0
bin	-0.16666666666667	0
bin	-0.1	0
bin	-0.033333333333333	328312
bin	0.033333333333333	6440
bin	0.1	3177
bin	0.16666666666667	2243
bin	0.23333333333333	1772
bin	0.3	1471
bin	0.36666666666667	1292
bin	0.43333333333333	1154
bin	0.5	1050
bin	0.56666666666667	1090
bin	0.63333333333333	1045
bin	0.7	1135
bin	0.76666666666667	1260
bin	0.83333333333333	1419
bin	0.9	2214
bin	0.96666666666667	104098
bin	1.0333333333333	0
bin	1.1	0
bin	1.1666666666667	0
bin	1.2333333333333	0
bin	1.3	0
bin	1.3666666666667	0
bin	1.4333333333333	0
bin	1.5	0
statistic scenarioPRJP1.node[0].wlan.radio 	minSNIR:histogram
field count 459172
field mean 18051.730359593
field stddev 197167.21946111
field sum 8288849132.6748
field sqrsum 1.7999860484941e+16
field min 0.00010510703198506
field max 9509131.0213454
attr source  minSNIR
attr title  "Min SNIR, histogram"
bin	-INF	0
bin	-238.47438461932	0
bin	-206.65404671062	0
bin	-174.83370880192	0
bin	-143.01337089321	0
bin	-111.19303298451	0
bin	-79.372695075803	0
bin	-47.552357167099	0
bin	-15.732019258395	255440
bin	16.088318650309	48250
bin	47.908656559013	13960
bin	79.728994467718	7649
bin	111.54933237642	5350
bin	143.36967028513	4389
bin	175.19000819383	3873
bin	207.01034610253	3303
bin	238.83068401124	2841
bin	270.65102191994	2692
bin	302.47135982865	4795
bin	334.29169773735	6038
bin	366.11203564606	5279
bin	397.93237355476	4621
bin	429.75271146346	3677
bin	461.57304937217	3524
bin	493.39338728087	2827
bin	525.21372518958	2762
bin	557.03406309828	2152
bin	588.85440100699	2109
bin	620.67473891569	2016
bin	652.49507682439	1802
bin	684.3154147331	1688
bin	716.1357526418	68135
scalar scenarioPRJP1.node[0].lo0.lo 	droppedPkBitError:count 	0
attr interpolationmode  none
attr source  dropPkBitError
attr title  "packets dropped/bit error, count"
scalar scenarioPRJP1.node[0].lo0.lo 	droppedPkBitError:sum(packetBytes) 	0
attr interpolationmode  none
attr source  dropPkBitError
attr title  "packets dropped/bit error, sum(packetBytes)"
scalar scenarioPRJP1.node[0].lo0.lo 	rcvdPkFromHL:count 	639
attr interpolationmode  none
attr source  packetReceivedFromUpper
attr title  "packets received from higher layer, count"
scalar scenarioPRJP1.node[0].lo0.lo 	rcvdPkFromHL:sum(packetBytes) 	332280
attr interpolationmode  none
attr source  packetReceivedFromUpper
attr title  "packets received from higher layer, sum(packetBytes)"
scalar scenarioPRJP1.node[0].lo0.lo 	passedUpPk:count 	639
attr interpolationmode  none
attr source  packetSentToUpper
attr title  "packets passed to higher layer, count"
scalar scenarioPRJP1.node[0].lo0.lo 	passedUpPk:sum(packetBytes) 	332280
attr interpolationmode  none
attr source  packetSentToUpper
attr title  "packets passed to higher layer, sum(packetBytes)"
scalar scenarioPRJP1.node[20].app 	"Total sent" 	5002
scalar scenarioPRJP1.node[20].app 	"Total received" 	530
scalar scenarioPRJP1.node[20].app 	"Total deleted" 	42
scalar scenarioPRJP1.node[20].app 	dropPk:count 	42
attr interpolationmode  none
attr source  dropPk
attr title  "packets dropped, count"
scalar scenarioPRJP1.node[20].app 	dropPk:sum(packetBytes) 	21504
attr interpolationmode  none
attr source  dropPk
attr title  "packets dropped, sum(packetBytes)"
scalar scenarioPRJP1.node[20].app 	outOfOrderPk:count 	17
attr interpolationmode  none
attr source  outOfOrderPk
attr title  "packets received out of order, count"
scalar scenarioPRJP1.node[20].app 	outOfOrderPk:sum(packetBytes) 	8704
attr interpolationmode  none
attr source  outOfOrderPk
attr title  "packets received out of order, sum(packetBytes)"
scalar scenarioPRJP1.node[20].app 	rcvdPk:count 	530
attr interpolationmode  none
attr source  rcvdPk
attr title  "packets received, count"
scalar scenarioPRJP1.node[20].app 	rcvdPk:sum(packetBytes) 	271360
attr interpolationmode  none
attr source  rcvdPk
attr title  "packets received, sum(packetBytes)"
statistic scenarioPRJP1.node[20].app 	endToEndDelay:histogram
field count 530
field mean 2.9124026592101
field stddev 5.0306368766798
field sum 1543.5734093813
field sqrsum 17883.072908839
field min 0.000910022685
field max 19.65917317863
attr interpolationmode  none
attr source  messageAge(rcvdPk)
attr title  "delay, histogram"
attr unit  s
bin	-INF	0
bin	-9.7883358866195	0
bin	-8.4830910419392	0
bin	-7.1778461972588	0
bin	-5.8726013525785	0
bin	-4.5673565078982	0
bin	-3.2621116632178	0
bin	-1.9568668185375	0
bin	-0.65162197385716	290
bin	0.65362287082317	85
bin	1.9588677155035	31
bin	3.2641125601838	17
bin	4.5693574048642	11
bin	5.8746022495445	8
bin	7.1798470942248	14
bin	8.4850919389052	6
bin	9.7903367835855	10
bin	11.095581628266	6
bin	12.400826472946	12
bin	13.706071317627	7
bin	15.011316162307	8
bin	16.316561006987	11
bin	17.621805851668	10
bin	18.927050696348	4
bin	20.232295541028	0
bin	21.537540385709	0
bin	22.842785230389	0
bin	24.148030075069	0
bin	25.453274919749	0
bin	26.75851976443	0
bin	28.06376460911	0
bin	29.36900945379	0
scalar scenarioPRJP1.node[20].app 	sentPk:count 	5002
attr interpolationmode  none
attr source  sentPk
attr title  "packets sent, count"
scalar scenarioPRJP1.node[20].app 	sentPk:sum(packetBytes) 	2561024
attr interpolationmode  none
attr source  sentPk
attr title  "packets sent, sum(packetBytes)"
scalar scenarioPRJP1.node[20].udp 	droppedPkBadChecksum:count 	0
attr interpolationmode  none
attr title  "packets dropped (checksum error), count"
scalar scenarioPRJP1.node[20].udp 	droppedPkWrongPort:count 	1
attr interpolationmode  none
attr title  "packets dropped (wrong port), count"
scalar scenarioPRJP1.node[20].udp 	passedUpPk:count 	589
attr interpolationmode  none
attr title  "packets passed up, count"
scalar scenarioPRJP1.node[20].udp 	rcvdPk:count 	590
attr interpolationmode  none
attr source  rcvdPk
attr title  "packets received, count"
scalar scenarioPRJP1.node[20].udp 	rcvdPk:sum(packetBytes) 	306800
attr interpolationmode  none
attr source  rcvdPk
attr title  "packets received, sum(packetBytes)"
scalar scenarioPRJP1.node[20].udp 	sentPk:count 	5002
attr interpolationmode  none
attr source  sentPk
attr title  "packets sent, count"
scalar scenarioPRJP1.node[20].udp 	sentPk:sum(packetBytes) 	2601040
attr interpolationmode  none
attr source  sentPk
attr title  "packets sent, sum(packetBytes)"
scalar scenarioPRJP1.node[20].networkLayer.arp 	failedARPResolution:count 	10
attr title  "ARP failed resolutions, count"
scalar scenarioPRJP1.node[20].networkLayer.arp 	completedARPResolution:count 	558
attr title  "ARP completed resolutions, count"
scalar scenarioPRJP1.node[20].networkLayer.arp 	initiatedARPResolution:count 	95
attr title  "ARP initiated resolutions, count"
scalar scenarioPRJP1.node[20].networkLayer.arp 	sentReply:count 	83
attr title  "ARP replies sent, count"
scalar scenarioPRJP1.node[20].networkLayer.arp 	sentReq:count 	153
attr title  "ARP request sent, count"
scalar scenarioPRJP1.node[20].mobility 	startTime 	2.5
scalar scenarioPRJP1.node[20].mobility 	totalTime 	1897.5
scalar scenarioPRJP1.node[20].mobility 	stopTime 	1900
scalar scenarioPRJP1.node[20].mobility 	minSpeed 	0
scalar scenarioPRJP1.node[20].mobility 	maxSpeed 	16.799843735568
scalar scenarioPRJP1.node[20].mobility 	totalDistance 	18202.500923305
scalar scenarioPRJP1.node[20].mobility 	totalCO2Emission 	4722.8024618181
scalar scenarioPRJP1.node[20].wlan.mgmt 	dataQueueLen:max 	37
attr interpolationmode  sample-hold
attr title  "data queue length, max"
scalar scenarioPRJP1.node[20].wlan.mgmt 	dataQueueLen:timeavg 	0
attr interpolationmode  sample-hold
attr title  "data queue length, timeavg"
scalar scenarioPRJP1.node[20].wlan.mgmt 	dropPkByQueue:count 	0
attr interpolationmode  none
attr source  dropPkByQueue
attr title  "packets dropped by queue, count"
scalar scenarioPRJP1.node[20].wlan.mgmt 	dropPkByQueue:sum(packetBytes) 	0
attr interpolationmode  none
attr source  dropPkByQueue
attr title  "packets dropped by queue, sum(packetBytes)"
scalar scenarioPRJP1.node[20].wlan.mac 	"number of received packets" 	14574
scalar scenarioPRJP1.node[20].wlan.mac 	"number of collisions" 	97418
scalar scenarioPRJP1.node[20].wlan.mac 	"number of internal collisions" 	0
scalar scenarioPRJP1.node[20].wlan.mac 	"number of retry for AC 0" 	39570
scalar scenarioPRJP1.node[20].wlan.mac 	"number of retry for AC 1" 	2
scalar scenarioPRJP1.node[20].wlan.mac 	"number of retry for AC 2" 	0
scalar scenarioPRJP1.node[20].wlan.mac 	"number of retry for AC 3" 	0
scalar scenarioPRJP1.node[20].wlan.mac 	"sent and received bits" 	47715168
scalar scenarioPRJP1.node[20].wlan.mac 	"sent packet within AC 0" 	13794
scalar scenarioPRJP1.node[20].wlan.mac 	"sent packet within AC 1" 	7
scalar scenarioPRJP1.node[20].wlan.mac 	"sent packet within AC 2" 	0
scalar scenarioPRJP1.node[20].wlan.mac 	"sent packet within AC 3" 	0
scalar scenarioPRJP1.node[20].wlan.mac 	"sent in TXOP " 	0
scalar scenarioPRJP1.node[20].wlan.mac 	"sentWithoutRetry AC 0" 	10304
scalar scenarioPRJP1.node[20].wlan.mac 	"sentWithoutRetry AC 1" 	5
scalar scenarioPRJP1.node[20].wlan.mac 	"sentWithoutRetry AC 2" 	0
scalar scenarioPRJP1.node[20].wlan.mac 	"sentWithoutRetry AC 3" 	0
scalar scenarioPRJP1.node[20].wlan.mac 	"numGivenUp AC 0" 	5051
scalar scenarioPRJP1.node[20].wlan.mac 	"numGivenUp AC 1" 	0
scalar scenarioPRJP1.node[20].wlan.mac 	"numGivenUp AC 2" 	0
scalar scenarioPRJP1.node[20].wlan.mac 	"numGivenUp AC 3" 	0
scalar scenarioPRJP1.node[20].wlan.mac 	"numDropped AC 0" 	0
scalar scenarioPRJP1.node[20].wlan.mac 	"numDropped AC 1" 	0
scalar scenarioPRJP1.node[20].wlan.mac 	"numDropped AC 2" 	0
scalar scenarioPRJP1.node[20].wlan.mac 	"numDropped AC 3" 	0
scalar scenarioPRJP1.node[20].wlan.mac 	rcvdPkFromLL:count 	373805
attr interpolationmode  none
attr source  packetReceivedFromLower
attr title  "packets received from lower layer, count"
scalar scenarioPRJP1.node[20].wlan.mac 	rcvdPkFromLL:sum(packetBytes) 	104505034
attr interpolationmode  none
attr source  packetReceivedFromLower
attr title  "packets received from lower layer, sum(packetBytes)"
scalar scenarioPRJP1.node[20].wlan.mac 	sentDownPk:count 	98120
attr interpolationmode  none
attr source  packetSentToLower
attr title  "packets sent to lower layer, count"
scalar scenarioPRJP1.node[20].wlan.mac 	sentDownPk:sum(packetBytes) 	26532568
attr interpolationmode  none
attr source  packetSentToLower
attr title  "packets sent to lower layer, sum(packetBytes)"
scalar scenarioPRJP1.node[20].wlan.mac 	rcvdPkFromHL:count 	43974
attr interpolationmode  none
attr source  packetReceivedFromUpper
attr title  "packets received from higher layer, count"
scalar scenarioPRJP1.node[20].wlan.mac 	rcvdPkFromHL:sum(packetBytes) 	8362324
attr interpolationmode  none
attr source  packetReceivedFromUpper
attr title  "packets received from higher layer, sum(packetBytes)"
scalar scenarioPRJP1.node[20].wlan.mac 	passedUpPk:count 	71083
attr interpolationmode  none
attr source  packetSentToUpper
attr title  "packets passed to higher layer, count"
scalar scenarioPRJP1.node[20].wlan.mac 	passedUpPk:sum(packetBytes) 	8276724
attr interpolationmode  none
attr source  packetSentToUpper
attr title  "packets passed to higher layer, sum(packetBytes)"
statistic scenarioPRJP1.node[20].wlan.radio 	radioChannel:histogram
field count 1
field mean 3
field stddev -nan
field sum 3
field sqrsum 9
field min 3
field max 3
attr interpolationmode  sample-hold
attr source  radioChannelChanged
attr title  "Radio channel, histogram"
bin	-INF	0
bin	2	0
bin	3	1
bin	4	0
scalar scenarioPRJP1.node[20].wlan.radio 	transmissionState:count 	392480
attr interpolationmode  sample-hold
attr source  transmissionStateChanged
attr title  "Radio transmission state, count"
scalar scenarioPRJP1.node[20].wlan.radio 	receptionState:count 	1754540
attr interpolationmode  sample-hold
attr source  receptionStateChanged
attr title  "Radio reception state, count"
scalar scenarioPRJP1.node[20].wlan.radio 	radioMode:count 	196242
attr interpolationmode  sample-hold
attr source  radioModeChanged
attr title  "Radio mode, count"
statistic scenarioPRJP1.node[20].wlan.radio 	symbolErrorRate:histogram
field count 0
field mean -nan
field stddev -nan
field sum 0
field sqrsum 0
field min -nan
field max -nan
attr source  symbolErrorRate
attr title  "Symbol error rate, histogram"
bin	-INF	0
bin	-0.5	0
bin	-0.46666666666667	0
bin	-0.43333333333333	0
bin	-0.4	0
bin	-0.36666666666667	0
bin	-0.33333333333333	0
bin	-0.3	0
bin	-0.26666666666667	0
bin	-0.23333333333333	0
bin	-0.2	0
bin	-0.16666666666667	0
bin	-0.13333333333333	0
bin	-0.1	0
bin	-0.066666666666667	0
bin	-0.033333333333333	0
bin	0	0
bin	0.033333333333333	0
bin	0.066666666666667	0
bin	0.1	0
bin	0.13333333333333	0
bin	0.16666666666667	0
bin	0.2	0
bin	0.23333333333333	0
bin	0.26666666666667	0
bin	0.3	0
bin	0.33333333333333	0
bin	0.36666666666667	0
bin	0.4	0
bin	0.43333333333333	0
bin	0.46666666666667	0
bin	0.5	0
statistic scenarioPRJP1.node[20].wlan.radio 	bitErrorRate:histogram
field count 0
field mean -nan
field stddev -nan
field sum 0
field sqrsum 0
field min -nan
field max -nan
attr source  bitErrorRate
attr title  "Bit error rate, histogram"
bin	-INF	0
bin	-0.5	0
bin	-0.46666666666667	0
bin	-0.43333333333333	0
bin	-0.4	0
bin	-0.36666666666667	0
bin	-0.33333333333333	0
bin	-0.3	0
bin	-0.26666666666667	0
bin	-0.23333333333333	0
bin	-0.2	0
bin	-0.16666666666667	0
bin	-0.13333333333333	0
bin	-0.1	0
bin	-0.066666666666667	0
bin	-0.033333333333333	0
bin	0	0
bin	0.033333333333333	0
bin	0.066666666666667	0
bin	0.1	0
bin	0.13333333333333	0
bin	0.16666666666667	0
bin	0.2	0
bin	0.23333333333333	0
bin	0.26666666666667	0
bin	0.3	0
bin	0.33333333333333	0
bin	0.36666666666667	0
bin	0.4	0
bin	0.43333333333333	0
bin	0.46666666666667	0
bin	0.5	0
statistic scenarioPRJP1.node[20].wlan.radio 	packetErrorRate:histogram
field count 373805
field mean 0.24291161966383
field stddev 0.41767264162885
field sum 90801.577988438
field sqrsum 87267.028993225
field min 0
field max 1
attr source  packetErrorRate
attr title  "Packet error rate, histogram"
bin	-INF	0
bin	-0.0044996387658027	0
bin	-0.0038996869303624	0
bin	-0.003299735094922	0
bin	-0.0026997832594816	0
bin	-0.0020998314240413	0
bin	-0.0014998795886009	0
bin	-0.00089992775316055	0
bin	-0.00029997591772018	246638
bin	0.00029997591772018	5060
bin	0.00089992775316055	2327
bin	0.0014998795886009	1507
bin	0.0020998314240413	1147
bin	0.0026997832594816	965
bin	0.003299735094922	741
bin	0.0038996869303624	666
bin	0.0044996387658027	543
bin	0.0050995906012431	577
bin	0.0056995424366835	492
bin	0.0062994942721238	432
bin	0.0068994461075642	397
bin	0.0074993979430045	372
bin	0.0080993497784449	303
bin	0.0086993016138853	305
bin	0.0092992534493256	286
bin	0.009899205284766	290
bin	0.010499157120206	305
bin	0.011099108955647	250
bin	0.011699060791087	205
bin	0.012299012626527	246
bin	0.012898964461968	246
bin	0.013498916297408	109505
statistic scenarioPRJP1.node[20].wlan.radio 	minSNIR:histogram
field count 373805
field mean 7118.6044805323
field stddev 103304.01643956
field sum 2660969947.8454
field sqrsum 4.0080739454017e+15
field min 0.00014579659747086
field max 4943931.4591653
attr source  minSNIR
attr title  "Min SNIR, histogram"
bin	-INF	0
bin	-1250.5646574847	0
bin	-1083.167923486	0
bin	-915.77118948736	0
bin	-748.37445548869	0
bin	-580.97772149002	0
bin	-413.58098749134	0
bin	-246.18425349267	0
bin	-78.787519493995	271091
bin	88.609214504678	17132
bin	256.00594850335	17224
bin	423.40268250202	12853
bin	590.7994165007	7340
bin	758.19615049937	4392
bin	925.59288449804	3549
bin	1092.9896184967	2719
bin	1260.3863524954	2178
bin	1427.7830864941	1873
bin	1595.1798204927	1671
bin	1762.5765544914	1608
bin	1929.9732884901	1302
bin	2097.3700224888	1031
bin	2264.7667564874	1068
bin	2432.1634904861	928
bin	2599.5602244848	888
bin	2766.9569584835	722
bin	2934.3536924821	680
bin	3101.7504264808	517
bin	3269.1471604795	673
bin	3436.5438944781	449
bin	3603.9406284768	505
bin	3771.3373624755	21412
scalar scenarioPRJP1.node[20].lo0.lo 	droppedPkBitError:count 	0
attr interpolationmode  none
attr source  dropPkBitError
attr title  "packets dropped/bit error, count"
scalar scenarioPRJP1.node[20].lo0.lo 	droppedPkBitError:sum(packetBytes) 	0
attr interpolationmode  none
attr source  dropPkBitError
attr title  "packets dropped/bit error, sum(packetBytes)"
scalar scenarioPRJP1.node[20].lo0.lo 	rcvdPkFromHL:count 	591
attr interpolationmode  none
attr source  packetReceivedFromUpper
attr title  "packets received from higher layer, count"
scalar scenarioPRJP1.node[20].lo0.lo 	rcvdPkFromHL:sum(packetBytes) 	306836
attr interpolationmode  none
attr source  packetReceivedFromUpper
attr title  "packets received from higher layer, sum(packetBytes)"
scalar scenarioPRJP1.node[20].lo0.lo 	passedUpPk:count 	591
attr interpolationmode  none
attr source  packetSentToUpper
attr title  "packets passed to higher layer, count"
scalar scenarioPRJP1.node[20].lo0.lo 	passedUpPk:sum(packetBytes) 	306836
attr interpolationmode  none
attr source  packetSentToUpper
attr title  "packets passed to higher layer, sum(packetBytes)"
scalar scenarioPRJP1.node[1].app 	"Total sent" 	5037
scalar scenarioPRJP1.node[1].app 	"Total received" 	639
scalar scenarioPRJP1.node[1].app 	"Total deleted" 	49
scalar scenarioPRJP1.node[1].app 	dropPk:count 	49
attr interpolationmode  none
attr source  dropPk
attr title  "packets dropped, count"
scalar scenarioPRJP1.node[1].app 	dropPk:sum(packetBytes) 	25088
attr interpolationmode  none
attr source  dropPk
attr title  "packets dropped, sum(packetBytes)"
scalar scenarioPRJP1.node[1].app 	outOfOrderPk:count 	38
attr interpolationmode  none
attr source  outOfOrderPk
attr title  "packets received out of order, count"
scalar scenarioPRJP1.node[1].app 	outOfOrderPk:sum(packetBytes) 	19456
attr interpolationmode  none
attr source  outOfOrderPk
attr title  "packets received out of order, sum(packetBytes)"
scalar scenarioPRJP1.node[1].app 	rcvdPk:count 	639
attr interpolationmode  none
attr source  rcvdPk
attr title  "packets received, count"
scalar scenarioPRJP1.node[1].app 	rcvdPk:sum(packetBytes) 	327168
attr interpolationmode  none
attr source  rcvdPk
attr title  "packets received, sum(packetBytes)"
statistic scenarioPRJP1.node[1].app 	endToEndDelay:histogram
field count 639
field mean 2.6823658129535
field stddev 4.7034498290369
field sum 1714.0317544773
field sqrsum 18711.777088269
field min 0.000910044537
field max 19.811446445118
attr interpolationmode  none
attr source  messageAge(rcvdPk)
attr title  "delay, histogram"
attr unit  s
bin	-INF	0
bin	-9.9043581557535	0
bin	-8.5836557290481	0
bin	-7.2629533023427	0
bin	-5.9422508756373	0
bin	-4.6215484489319	0
bin	-3.3008460222265	0
bin	-1.9801435955211	0
bin	-0.6594411688157	371
bin	0.6612612578897	79
bin	1.9819636845951	37
bin	3.3026661113005	33
bin	4.6233685380059	15
bin	5.9440709647113	10
bin	7.2647733914167	22
bin	8.5854758181221	5
bin	9.9061782448275	5
bin	11.226880671533	14
bin	12.547583098238	7
bin	13.868285524944	10
bin	15.188987951649	12
bin	16.509690378354	8
bin	17.83039280506	6
bin	19.151095231765	5
bin	20.471797658471	0
bin	21.792500085176	0
bin	23.113202511881	0
bin	24.433904938587	0
bin	25.754607365292	0
bin	27.075309791998	0
bin	28.396012218703	0
bin	29.716714645409	0
scalar scenarioPRJP1.node[1].app 	sentPk:count 	5037
attr interpolationmode  none
attr source  sentPk
attr title  "packets sent, count"
scalar scenarioPRJP1.node[1].app 	sentPk:sum(packetBytes) 	2578944
attr interpolationmode  none
attr source  sentPk
attr title  "packets sent, sum(packetBytes)"
scalar scenarioPRJP1.node[1].udp 	droppedPkBadChecksum:count 	0
attr interpolationmode  none
attr title  "packets dropped (checksum error), count"
scalar scenarioPRJP1.node[1].udp 	droppedPkWrongPort:count 	0
attr interpolationmode  none
attr title  "packets dropped (wrong port), count"
scalar scenarioPRJP1.node[1].udp 	passedUpPk:count 	726
attr interpolationmode  none
attr title  "packets passed up, count"
scalar scenarioPRJP1.node[1].udp 	rcvdPk:count 	726
attr interpolationmode  none
attr source  rcvdPk
attr title  "packets received, count"
scalar scenarioPRJP1.node[1].udp 	rcvdPk:sum(packetBytes) 	377520
attr interpolationmode  none
attr source  rcvdPk
attr title  "packets received, sum(packetBytes)"
scalar scenarioPRJP1.node[1].udp 	sentPk:count 	5037
attr interpolationmode  none
attr source  sentPk
attr title  "packets sent, count"
scalar scenarioPRJP1.node[1].udp 	sentPk:sum(packetBytes) 	2619240
attr interpolationmode  none
attr source  sentPk
attr title  "packets sent, sum(packetBytes)"
scalar scenarioPRJP1.node[1].networkLayer.arp 	failedARPResolution:count 	13
attr title  "ARP failed resolutions, count"
scalar scenarioPRJP1.node[1].networkLayer.arp 	completedARPResolution:count 	802
attr title  "ARP completed resolutions, count"
scalar scenarioPRJP1.node[1].networkLayer.arp 	initiatedARPResolution:count 	116
attr title  "ARP initiated resolutions, count"
scalar scenarioPRJP1.node[1].networkLayer.arp 	sentReply:count 	73
attr title  "ARP replies sent, count"
scalar scenarioPRJP1.node[1].networkLayer.arp 	sentReq:count 	183
attr title  "ARP request sent, count"
scalar scenarioPRJP1.node[1].mobility 	startTime 	0.1
scalar scenarioPRJP1.node[1].mobility 	totalTime 	1899.9
scalar scenarioPRJP1.node[1].mobility 	stopTime 	1900
scalar scenarioPRJP1.node[1].mobility 	minSpeed 	2.4754585266507e-13
scalar scenarioPRJP1.node[1].mobility 	maxSpeed 	17.423385233885
scalar scenarioPRJP1.node[1].mobility 	totalDistance 	17923.936929191
scalar scenarioPRJP1.node[1].mobility 	totalCO2Emission 	4818.5172093875
scalar scenarioPRJP1.node[1].wlan.mgmt 	dataQueueLen:max 	41
attr interpolationmode  sample-hold
attr title  "data queue length, max"
scalar scenarioPRJP1.node[1].wlan.mgmt 	dataQueueLen:timeavg 	0.0029721047003342
attr interpolationmode  sample-hold
attr title  "data queue length, timeavg"
scalar scenarioPRJP1.node[1].wlan.mgmt 	dropPkByQueue:count 	0
attr interpolationmode  none
attr source  dropPkByQueue
attr title  "packets dropped by queue, count"
scalar scenarioPRJP1.node[1].wlan.mgmt 	dropPkByQueue:sum(packetBytes) 	0
attr interpolationmode  none
attr source  dropPkByQueue
attr title  "packets dropped by queue, sum(packetBytes)"
scalar scenarioPRJP1.node[1].wlan.mac 	"number of received packets" 	17586
scalar scenarioPRJP1.node[1].wlan.mac 	"number of collisions" 	114768
scalar scenarioPRJP1.node[1].wlan.mac 	"number of internal collisions" 	0
scalar scenarioPRJP1.node[1].wlan.mac 	"number of retry for AC 0" 	46528
scalar scenarioPRJP1.node[1].wlan.mac 	"number of retry for AC 1" 	37
scalar scenarioPRJP1.node[1].wlan.mac 	"number of retry for AC 2" 	0
scalar scenarioPRJP1.node[1].wlan.mac 	"number of retry for AC 3" 	0
scalar scenarioPRJP1.node[1].wlan.mac 	"sent and received bits" 	56061696
scalar scenarioPRJP1.node[1].wlan.mac 	"sent packet within AC 0" 	16869
scalar scenarioPRJP1.node[1].wlan.mac 	"sent packet within AC 1" 	3
scalar scenarioPRJP1.node[1].wlan.mac 	"sent packet within AC 2" 	0
scalar scenarioPRJP1.node[1].wlan.mac 	"sent packet within AC 3" 	0
scalar scenarioPRJP1.node[1].wlan.mac 	"sent in TXOP " 	0
scalar scenarioPRJP1.node[1].wlan.mac 	"sentWithoutRetry AC 0" 	12886
scalar scenarioPRJP1.node[1].wlan.mac 	"sentWithoutRetry AC 1" 	2
scalar scenarioPRJP1.node[1].wlan.mac 	"sentWithoutRetry AC 2" 	0
scalar scenarioPRJP1.node[1].wlan.mac 	"sentWithoutRetry AC 3" 	0
scalar scenarioPRJP1.node[1].wlan.mac 	"numGivenUp AC 0" 	5995
scalar scenarioPRJP1.node[1].wlan.mac 	"numGivenUp AC 1" 	6
scalar scenarioPRJP1.node[1].wlan.mac 	"numGivenUp AC 2" 	0
scalar scenarioPRJP1.node[1].wlan.mac 	"numGivenUp AC 3" 	0
scalar scenarioPRJP1.node[1].wlan.mac 	"numDropped AC 0" 	64
scalar scenarioPRJP1.node[1].wlan.mac 	"numDropped AC 1" 	0
scalar scenarioPRJP1.node[1].wlan.mac 	"numDropped AC 2" 	0
scalar scenarioPRJP1.node[1].wlan.mac 	"numDropped AC 3" 	0
scalar scenarioPRJP1.node[1].wlan.mac 	rcvdPkFromLL:count 	482621
attr interpolationmode  none
attr source  packetReceivedFromLower
attr title  "packets received from lower layer, count"
scalar scenarioPRJP1.node[1].wlan.mac 	rcvdPkFromLL:sum(packetBytes) 	135212262
attr interpolationmode  none
attr source  packetReceivedFromLower
attr title  "packets received from lower layer, sum(packetBytes)"
scalar scenarioPRJP1.node[1].wlan.mac 	sentDownPk:count 	113567
attr interpolationmode  none
attr source  packetSentToLower
attr title  "packets sent to lower layer, count"
scalar scenarioPRJP1.node[1].wlan.mac 	sentDownPk:sum(packetBytes) 	30866336
attr interpolationmode  none
attr source  packetSentToLower
attr title  "packets sent to lower layer, sum(packetBytes)"
scalar scenarioPRJP1.node[1].wlan.mac 	rcvdPkFromHL:count 	49480
attr interpolationmode  none
attr source  packetReceivedFromUpper
attr title  "packets received from higher layer, count"
scalar scenarioPRJP1.node[1].wlan.mac 	rcvdPkFromHL:sum(packetBytes) 	9837864
attr interpolationmode  none
attr source  packetReceivedFromUpper
attr title  "packets received from higher layer, sum(packetBytes)"
scalar scenarioPRJP1.node[1].wlan.mac 	passedUpPk:count 	90474
attr interpolationmode  none
attr source  packetSentToUpper
attr title  "packets passed to higher layer, count"
scalar scenarioPRJP1.node[1].wlan.mac 	passedUpPk:sum(packetBytes) 	10445600
attr interpolationmode  none
attr source  packetSentToUpper
attr title  "packets passed to higher layer, sum(packetBytes)"
statistic scenarioPRJP1.node[1].wlan.radio 	radioChannel:histogram
field count 1
field mean 3
field stddev -nan
field sum 3
field sqrsum 9
field min 3
field max 3
attr interpolationmode  sample-hold
attr source  radioChannelChanged
attr title  "Radio channel, histogram"
bin	-INF	0
bin	2	0
bin	3	1
bin	4	0
scalar scenarioPRJP1.node[1].wlan.radio 	transmissionState:count 	454268
attr interpolationmode  sample-hold
attr source  transmissionStateChanged
attr title  "Radio transmission state, count"
scalar scenarioPRJP1.node[1].wlan.radio 	receptionState:count 	2073368
attr interpolationmode  sample-hold
attr source  receptionStateChanged
attr title  "Radio reception state, count"
scalar scenarioPRJP1.node[1].wlan.radio 	radioMode:count 	227136
attr interpolationmode  sample-hold
attr source  radioModeChanged
attr title  "Radio mode, count"
statistic scenarioPRJP1.node[1].wlan.radio 	symbolErrorRate:histogram
field count 0
field mean -nan
field stddev -nan
field sum 0
field sqrsum 0
field min -nan
field max -nan
attr source  symbolErrorRate
attr title  "Symbol error rate, histogram"
bin	-INF	0
bin	-0.5	0
bin	-0.46666666666667	0
bin	-0.43333333333333	0
bin	-0.4	0
bin	-0.36666666666667	0
bin	-0.33333333333333	0
bin	-0.3	0
bin	-0.26666666666667	0
bin	-0.23333333333333	0
bin	-0.2	0
bin	-0.16666666666667	0
bin	-0.13333333333333	0
bin	-0.1	0
bin	-0.066666666666667	0
bin	-0.033333333333333	0
bin	0	0
bin	0.033333333333333	0
bin	0.066666666666667	0
bin	0.1	0
bin	0.13333333333333	0
bin	0.16666666666667	0
bin	0.2	0
bin	0.23333333333333	0
bin	0.26666666666667	0
bin	0.3	0
bin	0.33333333333333	0
bin	0.36666666666667	0
bin	0.4	0
bin	0.43333333333333	0
bin	0.46666666666667	0
bin	0.5	0
statistic scenarioPRJP1.node[1].wlan.radio 	bitErrorRate:histogram
field count 0
field mean -nan
field stddev -nan
field sum 0
field sqrsum 0
field min -nan
field max -nan
attr source  bitErrorRate
attr title  "Bit error rate, histogram"
bin	-INF	0
bin	-0.5	0
bin	-0.46666666666667	0
bin	-0.43333333333333	0
bin	-0.4	0
bin	-0.36666666666667	0
bin	-0.33333333333333	0
bin	-0.3	0
bin	-0.26666666666667	0
bin	-0.23333333333333	0
bin	-0.2	0
bin	-0.16666666666667	0
bin	-0.13333333333333	0
bin	-0.1	0
bin	-0.066666666666667	0
bin	-0.033333333333333	0
bin	0	0
bin	0.033333333333333	0
bin	0.066666666666667	0
bin	0.1	0
bin	0.13333333333333	0
bin	0.16666666666667	0
bin	0.2	0
bin	0.23333333333333	0
bin	0.26666666666667	0
bin	0.3	0
bin	0.33333333333333	0
bin	0.36666666666667	0
bin	0.4	0
bin	0.43333333333333	0
bin	0.46666666666667	0
bin	0.5	0
statistic scenarioPRJP1.node[1].wlan.radio 	packetErrorRate:histogram
field count 482621
field mean 0.22288363819882
field stddev 0.40648675470461
field sum 107568.32435115
field sqrsum 103719.23720866
field min 0
field max 1
attr source  packetErrorRate
attr title  "Packet error rate, histogram"
bin	-INF	0
bin	-0.5	0
bin	-0.43333333333333	0
bin	-0.36666666666667	0
bin	-0.3	0
bin	-0.23333333333333	0
bin	-0.16666666666667	0
bin	-0.1	0
bin	-0.033333333333333	359384
bin	0.033333333333333	6453
bin	0.1	2947
bin	0.16666666666667	2089
bin	0.23333333333333	1623
bin	0.3	1448
bin	0.36666666666667	1147
bin	0.43333333333333	1097
bin	0.5	1065
bin	0.56666666666667	1034
bin	0.63333333333333	1026
bin	0.7	1087
bin	0.76666666666667	1139
bin	0.83333333333333	1357
bin	0.9	2108
bin	0.96666666666667	97617
bin	1.0333333333333	0
bin	1.1	0
bin	1.1666666666667	0
bin	1.2333333333333	0
bin	1.3	0
bin	1.3666666666667	0
bin	1.4333333333333	0
bin	1.5	0
statistic scenarioPRJP1.node[1].wlan.radio 	minSNIR:histogram
field count 482621
field mean 9116.7826797632
field stddev 128945.98772802
field sum 4399950773.69
field sqrsum 8.0646688330681e+15
field min 0.00013608837109047
field max 11130146.706734
attr source  minSNIR
attr title  "Min SNIR, histogram"
bin	-INF	0
bin	-10622.316787388	0
bin	-9206.0073081491	0
bin	-7789.6978289096	0
bin	-6373.3883496702	0
bin	-4957.0788704308	0
bin	-3540.7693911913	0
bin	-2124.4599119519	0
bin	-708.15043271246	404373
bin	708.15904652697	32323
bin	2124.4685257664	11310
bin	3540.7780050058	5399
bin	4957.0874842453	3648
bin	6373.3969634847	2524
bin	7789.7064427241	2122
bin	9206.0159219636	1899
bin	10622.325401203	1509
bin	12038.634880442	1096
bin	13454.944359682	904
bin	14871.253838921	656
bin	16287.563318161	525
bin	17703.8727974	420
bin	19120.18227664	375
bin	20536.491755879	346
bin	21952.801235118	318
bin	23369.110714358	357
bin	24785.420193597	277
bin	26201.729672837	302
bin	27618.039152076	254
bin	29034.348631316	166
bin	30450.658110555	188
bin	31866.967589794	11330
scalar scenarioPRJP1.node[1].lo0.lo 	droppedPkBitError:count 	0
attr interpolationmode  none
attr source  dropPkBitError
attr title  "packets dropped/bit error, count"
scalar scenarioPRJP1.node[1].lo0.lo 	droppedPkBitError:sum(packetBytes) 	0
attr interpolationmode  none
attr source  dropPkBitError
attr title  "packets dropped/bit error, sum(packetBytes)"
scalar scenarioPRJP1.node[1].lo0.lo 	rcvdPkFromHL:count 	730
attr interpolationmode  none
attr source  packetReceivedFromUpper
attr title  "packets received from higher layer, count"
scalar scenarioPRJP1.node[1].lo0.lo 	rcvdPkFromHL:sum(packetBytes) 	377664
attr interpolationmode  none
attr source  packetReceivedFromUpper
attr title  "packets received from higher layer, sum(packetBytes)"
scalar scenarioPRJP1.node[1].lo0.lo 	passedUpPk:count 	730
attr interpolationmode  none
attr source  packetSentToUpper
attr title  "packets passed to higher layer, count"
scalar scenarioPRJP1.node[1].lo0.lo 	passedUpPk:sum(packetBytes) 	377664
attr interpolationmode  none
attr source  packetSentToUpper
attr title  "packets passed to higher layer, sum(packetBytes)"
scalar scenarioPRJP1.node[38].app 	"Total sent" 	5021
scalar scenarioPRJP1.node[38].app 	"Total received" 	585
scalar scenarioPRJP1.node[38].app 	"Total deleted" 	58
scalar scenarioPRJP1.node[38].app 	dropPk:count 	58
attr interpolationmode  none
attr source  dropPk
attr title  "packets dropped, count"
scalar scenarioPRJP1.node[38].app 	dropPk:sum(packetBytes) 	29696
attr interpolationmode  none
attr source  dropPk
attr title  "packets dropped, sum(packetBytes)"
scalar scenarioPRJP1.node[38].app 	outOfOrderPk:count 	40
attr interpolationmode  none
attr source  outOfOrderPk
attr title  "packets received out of order, count"
scalar scenarioPRJP1.node[38].app 	outOfOrderPk:sum(packetBytes) 	20480
attr interpolationmode  none
attr source  outOfOrderPk
attr title  "packets received out of order, sum(packetBytes)"
scalar scenarioPRJP1.node[38].app 	rcvdPk:count 	585
attr interpolationmode  none
attr source  rcvdPk
attr title  "packets received, count"
scalar scenarioPRJP1.node[38].app 	rcvdPk:sum(packetBytes) 	299520
attr interpolationmode  none
attr source  rcvdPk
attr title  "packets received, sum(packetBytes)"
statistic scenarioPRJP1.node[38].app 	endToEndDelay:histogram
field count 585
field mean 3.5946495636739
field stddev 5.6340373262749
field sum 2102.8699947492
field sqrsum 26096.628639902
field min 0.000910032328
field max 19.983385587769
attr interpolationmode  none
attr source  messageAge(rcvdPk)
attr title  "delay, histogram"
attr unit  s
bin	-INF	0
bin	-9.516483276428	0
bin	-8.2473519822695	0
bin	-6.9782206881109	0
bin	-5.7090893939524	0
bin	-4.4399580997939	0
bin	-3.1708268056353	0
bin	-1.9016955114768	0
bin	-0.63256421731827	302
bin	0.63656707684027	82
bin	1.9056983709988	30
bin	3.1748296651573	19
bin	4.4439609593159	16
bin	5.7130922534744	12
bin	6.9822235476329	16
bin	8.2513548417915	6
bin	9.52048613595	13
bin	10.789617430109	12
bin	12.058748724267	10
bin	13.327880018426	16
bin	14.597011312584	12
bin	15.866142606743	10
bin	17.135273900901	13
bin	18.40440519506	10
bin	19.673536489218	6
bin	20.942667783377	0
bin	22.211799077535	0
bin	23.480930371694	0
bin	24.750061665852	0
bin	26.019192960011	0
bin	27.288324254169	0
bin	28.557455548328	0
scalar scenarioPRJP1.node[38].app 	sentPk:count 	5021
attr interpolationmode  none
attr source  sentPk
attr title  "packets sent, count"
scalar scenarioPRJP1.node[38].app 	sentPk:sum(packetBytes) 	2570752
attr interpolationmode  none
attr source  sentPk
attr title  "packets sent, sum(packetBytes)"
scalar scenarioPRJP1.node[38].udp 	droppedPkBadChecksum:count 	0
attr interpolationmode  none
attr title  "packets dropped (checksum error), count"
scalar scenarioPRJP1.node[38].udp 	droppedPkWrongPort:count 	1
attr interpolationmode  none
attr title  "packets dropped (wrong port), count"
scalar scenarioPRJP1.node[38].udp 	passedUpPk:count 	683
attr interpolationmode  none
attr title  "packets passed up, count"
scalar scenarioPRJP1.node[38].udp 	rcvdPk:count 	684
attr interpolationmode  none
attr source  rcvdPk
attr title  "packets received, count"
scalar scenarioPRJP1.node[38].udp 	rcvdPk:sum(packetBytes) 	355680
attr interpolationmode  none
attr source  rcvdPk
attr title  "packets received, sum(packetBytes)"
scalar scenarioPRJP1.node[38].udp 	sentPk:count 	5021
attr interpolationmode  none
attr source  sentPk
attr title  "packets sent, count"
scalar scenarioPRJP1.node[38].udp 	sentPk:sum(packetBytes) 	2610920
attr interpolationmode  none
attr source  sentPk
attr title  "packets sent, sum(packetBytes)"
scalar scenarioPRJP1.node[38].networkLayer.arp 	failedARPResolution:count 	32
attr title  "ARP failed resolutions, count"
scalar scenarioPRJP1.node[38].networkLayer.arp 	completedARPResolution:count 	792
attr title  "ARP completed resolutions, count"
scalar scenarioPRJP1.node[38].networkLayer.arp 	initiatedARPResolution:count 	128
attr title  "ARP initiated resolutions, count"
scalar scenarioPRJP1.node[38].networkLayer.arp 	sentReply:count 	76
attr title  "ARP replies sent, count"
scalar scenarioPRJP1.node[38].networkLayer.arp 	sentReq:count 	230
attr title  "ARP request sent, count"
scalar scenarioPRJP1.node[38].mobility 	startTime 	2.6
scalar scenarioPRJP1.node[38].mobility 	totalTime 	1897.4
scalar scenarioPRJP1.node[38].mobility 	stopTime 	1900
scalar scenarioPRJP1.node[38].mobility 	minSpeed 	2.475689173995e-13
scalar scenarioPRJP1.node[38].mobility 	maxSpeed 	19.103910862649
scalar scenarioPRJP1.node[38].mobility 	totalDistance 	22771.960524918
scalar scenarioPRJP1.node[38].mobility 	totalCO2Emission 	5592.5069145431
scalar scenarioPRJP1.node[38].wlan.mgmt 	dataQueueLen:max 	16
attr interpolationmode  sample-hold
attr title  "data queue length, max"
scalar scenarioPRJP1.node[38].wlan.mgmt 	dataQueueLen:timeavg 	0
attr interpolationmode  sample-hold
attr title  "data queue length, timeavg"
scalar scenarioPRJP1.node[38].wlan.mgmt 	dropPkByQueue:count 	0
attr interpolationmode  none
attr source  dropPkByQueue
attr title  "packets dropped by queue, count"
scalar scenarioPRJP1.node[38].wlan.mgmt 	dropPkByQueue:sum(packetBytes) 	0
attr interpolationmode  none
attr source  dropPkByQueue
attr title  "packets dropped by queue, sum(packetBytes)"
scalar scenarioPRJP1.node[38].wlan.mac 	"number of received packets" 	17112
scalar scenarioPRJP1.node[38].wlan.mac 	"number of collisions" 	113380
scalar scenarioPRJP1.node[38].wlan.mac 	"number of internal collisions" 	0
scalar scenarioPRJP1.node[38].wlan.mac 	"number of retry for AC 0" 	48783
scalar scenarioPRJP1.node[38].wlan.mac 	"number of retry for AC 1" 	3
scalar scenarioPRJP1.node[38].wlan.mac 	"number of retry for AC 2" 	0
scalar scenarioPRJP1.node[38].wlan.mac 	"number of retry for AC 3" 	0
scalar scenarioPRJP1.node[38].wlan.mac 	"sent and received bits" 	52889248
scalar scenarioPRJP1.node[38].wlan.mac 	"sent packet within AC 0" 	16903
scalar scenarioPRJP1.node[38].wlan.mac 	"sent packet within AC 1" 	14
scalar scenarioPRJP1.node[38].wlan.mac 	"sent packet within AC 2" 	0
scalar scenarioPRJP1.node[38].wlan.mac 	"sent packet within AC 3" 	0
scalar scenarioPRJP1.node[38].wlan.mac 	"sent in TXOP " 	0
scalar scenarioPRJP1.node[38].wlan.mac 	"sentWithoutRetry AC 0" 	13107
scalar scenarioPRJP1.node[38].wlan.mac 	"sentWithoutRetry AC 1" 	12
scalar scenarioPRJP1.node[38].wlan.mac 	"sentWithoutRetry AC 2" 	0
scalar scenarioPRJP1.node[38].wlan.mac 	"sentWithoutRetry AC 3" 	0
scalar scenarioPRJP1.node[38].wlan.mac 	"numGivenUp AC 0" 	6482
scalar scenarioPRJP1.node[38].wlan.mac 	"numGivenUp AC 1" 	0
scalar scenarioPRJP1.node[38].wlan.mac 	"numGivenUp AC 2" 	0
scalar scenarioPRJP1.node[38].wlan.mac 	"numGivenUp AC 3" 	0
scalar scenarioPRJP1.node[38].wlan.mac 	"numDropped AC 0" 	0
scalar scenarioPRJP1.node[38].wlan.mac 	"numDropped AC 1" 	0
scalar scenarioPRJP1.node[38].wlan.mac 	"numDropped AC 2" 	0
scalar scenarioPRJP1.node[38].wlan.mac 	"numDropped AC 3" 	0
scalar scenarioPRJP1.node[38].wlan.mac 	rcvdPkFromLL:count 	471999
attr interpolationmode  none
attr source  packetReceivedFromLower
attr title  "packets received from lower layer, count"
scalar scenarioPRJP1.node[38].wlan.mac 	rcvdPkFromLL:sum(packetBytes) 	132834492
attr interpolationmode  none
attr source  packetReceivedFromLower
attr title  "packets received from lower layer, sum(packetBytes)"
scalar scenarioPRJP1.node[38].wlan.mac 	sentDownPk:count 	113074
attr interpolationmode  none
attr source  packetSentToLower
attr title  "packets sent to lower layer, count"
scalar scenarioPRJP1.node[38].wlan.mac 	sentDownPk:sum(packetBytes) 	31591468
attr interpolationmode  none
attr source  packetSentToLower
attr title  "packets sent to lower layer, sum(packetBytes)"
scalar scenarioPRJP1.node[38].wlan.mac 	rcvdPkFromHL:count 	47176
attr interpolationmode  none
attr source  packetReceivedFromUpper
attr title  "packets received from higher layer, count"
scalar scenarioPRJP1.node[38].wlan.mac 	rcvdPkFromHL:sum(packetBytes) 	9627652
attr interpolationmode  none
attr source  packetReceivedFromUpper
attr title  "packets received from higher layer, sum(packetBytes)"
scalar scenarioPRJP1.node[38].wlan.mac 	passedUpPk:count 	82343
attr interpolationmode  none
attr source  packetSentToUpper
attr title  "packets passed to higher layer, count"
scalar scenarioPRJP1.node[38].wlan.mac 	passedUpPk:sum(packetBytes) 	9781616
attr interpolationmode  none
attr source  packetSentToUpper
attr title  "packets passed to higher layer, sum(packetBytes)"
statistic scenarioPRJP1.node[38].wlan.radio 	radioChannel:histogram
field count 1
field mean 3
field stddev -nan
field sum 3
field sqrsum 9
field min 3
field max 3
attr interpolationmode  sample-hold
attr source  radioChannelChanged
attr title  "Radio channel, histogram"
bin	-INF	0
bin	2	0
bin	3	1
bin	4	0
scalar scenarioPRJP1.node[38].wlan.radio 	transmissionState:count 	452296
attr interpolationmode  sample-hold
attr source  transmissionStateChanged
attr title  "Radio transmission state, count"
scalar scenarioPRJP1.node[38].wlan.radio 	receptionState:count 	1952520
attr interpolationmode  sample-hold
attr source  receptionStateChanged
attr title  "Radio reception state, count"
scalar scenarioPRJP1.node[38].wlan.radio 	radioMode:count 	226150
attr interpolationmode  sample-hold
attr source  radioModeChanged
attr title  "Radio mode, count"
statistic scenarioPRJP1.node[38].wlan.radio 	symbolErrorRate:histogram
field count 0
field mean -nan
field stddev -nan
field sum 0
field sqrsum 0
field min -nan
field max -nan
attr source  symbolErrorRate
attr title  "Symbol error rate, histogram"
bin	-INF	0
bin	-0.5	0
bin	-0.46666666666667	0
bin	-0.43333333333333	0
bin	-0.4	0
bin	-0.36666666666667	0
bin	-0.33333333333333	0
bin	-0.3	0
bin	-0.26666666666667	0
bin	-0.23333333333333	0
bin	-0.2	0
bin	-0.16666666666667	0
bin	-0.13333333333333	0
bin	-0.1	0
bin	-0.066666666666667	0
bin	-0.033333333333333	0
bin	0	0
bin	0.033333333333333	0
bin	0.066666666666667	0
bin	0.1	0
bin	0.13333333333333	0
bin	0.16666666666667	0
bin	0.2	0
bin	0.23333333333333	0
bin	0.26666666666667	0
bin	0.3	0
bin	0.33333333333333	0
bin	0.36666666666667	0
bin	0.4	0
bin	0.43333333333333	0
bin	0.46666666666667	0
bin	0.5	0
statistic scenarioPRJP1.node[38].wlan.radio 	bitErrorRate:histogram
field count 0
field mean -nan
field stddev -nan
field sum 0
field sqrsum 0
field min -nan
field max -nan
attr source  bitErrorRate
attr title  "Bit error rate, histogram"
bin	-INF	0
bin	-0.5	0
bin	-0.46666666666667	0
bin	-0.43333333333333	0
bin	-0.4	0
bin	-0.36666666666667	0
bin	-0.33333333333333	0
bin	-0.3	0
bin	-0.26666666666667	0
bin	-0.23333333333333	0
bin	-0.2	0
bin	-0.16666666666667	0
bin	-0.13333333333333	0
bin	-0.1	0
bin	-0.066666666666667	0
bin	-0.033333333333333	0
bin	0	0
bin	0.033333333333333	0
bin	0.066666666666667	0
bin	0.1	0
bin	0.13333333333333	0
bin	0.16666666666667	0
bin	0.2	0
bin	0.23333333333333	0
bin	0.26666666666667	0
bin	0.3	0
bin	0.33333333333333	0
bin	0.36666666666667	0
bin	0.4	0
bin	0.43333333333333	0
bin	0.46666666666667	0
bin	0.5	0
statistic scenarioPRJP1.node[38].wlan.radio 	packetErrorRate:histogram
field count 471999
field mean 0.22510334264352
field stddev 0.40829224476403
field sum 106248.5526244
field sqrsum 102600.17790913
field min 0
field max 1
attr source  packetErrorRate
attr title  "Packet error rate, histogram"
bin	-INF	0
bin	-0.5	0
bin	-0.43333333333333	0
bin	-0.36666666666667	0
bin	-0.3	0
bin	-0.23333333333333	0
bin	-0.16666666666667	0
bin	-0.1	0
bin	-0.033333333333333	350988
bin	0.033333333333333	5795
bin	0.1	2938
bin	0.16666666666667	2066
bin	0.23333333333333	1593
bin	0.3	1384
bin	0.36666666666667	1151
bin	0.43333333333333	1055
bin	0.5	901
bin	0.56666666666667	954
bin	0.63333333333333	991
bin	0.7	987
bin	0.76666666666667	1026
bin	0.83333333333333	1317
bin	0.9	2010
bin	0.96666666666667	96843
bin	1.0333333333333	0
bin	1.1	0
bin	1.1666666666667	0
bin	1.2333333333333	0
bin	1.3	0
bin	1.3666666666667	0
bin	1.4333333333333	0
bin	1.5	0
statistic scenarioPRJP1.node[38].wlan.radio 	minSNIR:histogram
field count 471999
field mean 12392.96397954
field stddev 136261.59119016
field sum 5849466605.3787
field sqrsum 8.8361835167924e+15
field min 0.00015824718563378
field max 8649512.1141346
attr source  minSNIR
attr title  "Min SNIR, histogram"
bin	-INF	0
bin	-314055.29060478	0
bin	-272181.25175637	0
bin	-230307.21290797	0
bin	-188433.17405957	0
bin	-146559.13521117	0
bin	-104685.09636277	0
bin	-62811.057514366	0
bin	-20937.018665964	452915
bin	20937.020182438	8703
bin	62811.05903084	3302
bin	104685.09787924	1220
bin	146559.13672764	1115
bin	188433.17557604	371
bin	230307.21442445	336
bin	272181.25327285	207
bin	314055.29212125	219
bin	355929.33096965	119
bin	397803.36981805	98
bin	439677.40866646	100
bin	481551.44751486	135
bin	523425.48636326	152
bin	565299.52521166	217
bin	607173.56406006	138
bin	649047.60290846	212
bin	690921.64175687	1380
bin	732795.68060527	62
bin	774669.71945367	10
bin	816543.75830207	0
bin	858417.79715047	2
bin	900291.83599887	21
bin	942165.87484728	965
scalar scenarioPRJP1.node[38].lo0.lo 	droppedPkBitError:count 	0
attr interpolationmode  none
attr source  dropPkBitError
attr title  "packets dropped/bit error, count"
scalar scenarioPRJP1.node[38].lo0.lo 	droppedPkBitError:sum(packetBytes) 	0
attr interpolationmode  none
attr source  dropPkBitError
attr title  "packets dropped/bit error, sum(packetBytes)"
scalar scenarioPRJP1.node[38].lo0.lo 	rcvdPkFromHL:count 	684
attr interpolationmode  none
attr source  packetReceivedFromUpper
attr title  "packets received from higher layer, count"
scalar scenarioPRJP1.node[38].lo0.lo 	rcvdPkFromHL:sum(packetBytes) 	355680
attr interpolationmode  none
attr source  packetReceivedFromUpper
attr title  "packets received from higher layer, sum(packetBytes)"
scalar scenarioPRJP1.node[38].lo0.lo 	passedUpPk:count 	684
attr interpolationmode  none
attr source  packetSentToUpper
attr title  "packets passed to higher layer, count"
scalar scenarioPRJP1.node[38].lo0.lo 	passedUpPk:sum(packetBytes) 	355680
attr interpolationmode  none
attr source  packetSentToUpper
attr title  "packets passed to higher layer, sum(packetBytes)"
scalar scenarioPRJP1.node[2].app 	"Total sent" 	5013
scalar scenarioPRJP1.node[2].app 	"Total received" 	635
scalar scenarioPRJP1.node[2].app 	"Total deleted" 	58
scalar scenarioPRJP1.node[2].app 	dropPk:count 	58
attr interpolationmode  none
attr source  dropPk
attr title  "packets dropped, count"
scalar scenarioPRJP1.node[2].app 	dropPk:sum(packetBytes) 	29696
attr interpolationmode  none
attr source  dropPk
attr title  "packets dropped, sum(packetBytes)"
scalar scenarioPRJP1.node[2].app 	outOfOrderPk:count 	24
attr interpolationmode  none
attr source  outOfOrderPk
attr title  "packets received out of order, count"
scalar scenarioPRJP1.node[2].app 	outOfOrderPk:sum(packetBytes) 	12288
attr interpolationmode  none
attr source  outOfOrderPk
attr title  "packets received out of order, sum(packetBytes)"
scalar scenarioPRJP1.node[2].app 	rcvdPk:count 	635
attr interpolationmode  none
attr source  rcvdPk
attr title  "packets received, count"
scalar scenarioPRJP1.node[2].app 	rcvdPk:sum(packetBytes) 	325120
attr interpolationmode  none
attr source  rcvdPk
attr title  "packets received, sum(packetBytes)"
statistic scenarioPRJP1.node[2].app 	endToEndDelay:histogram
field count 635
field mean 2.8340595760478
field stddev 4.9912720856216
field sum 1799.6278307903
field sqrsum 20894.965805908
field min 0.000910339578
field max 19.831173779365
attr interpolationmode  none
attr source  messageAge(rcvdPk)
attr title  "delay, histogram"
attr unit  s
bin	-INF	0
bin	-9.42040389117	0
bin	-8.164219725768	0
bin	-6.908035560366	0
bin	-5.651851394964	0
bin	-4.395667229562	0
bin	-3.13948306416	0
bin	-1.883298898758	0
bin	-0.627114733356	375
bin	0.629069432046	79
bin	1.885253597448	24
bin	3.14143776285	23
bin	4.397621928252	18
bin	5.653806093654	9
bin	6.909990259056	16
bin	8.166174424458	8
bin	9.42235858986	11
bin	10.678542755262	10
bin	11.934726920664	11
bin	13.190911086066	7
bin	14.447095251468	14
bin	15.70327941687	12
bin	16.959463582272	9
bin	18.215647747674	8
bin	19.471831913076	1
bin	20.728016078478	0
bin	21.98420024388	0
bin	23.240384409282	0
bin	24.496568574684	0
bin	25.752752740086	0
bin	27.008936905488	0
bin	28.26512107089	0
scalar scenarioPRJP1.node[2].app 	sentPk:count 	5013
attr interpolationmode  none
attr source  sentPk
attr title  "packets sent, count"
scalar scenarioPRJP1.node[2].app 	sentPk:sum(packetBytes) 	2566656
attr interpolationmode  none
attr source  sentPk
attr title  "packets sent, sum(packetBytes)"
scalar scenarioPRJP1.node[2].udp 	droppedPkBadChecksum:count 	0
attr interpolationmode  none
attr title  "packets dropped (checksum error), count"
scalar scenarioPRJP1.node[2].udp 	droppedPkWrongPort:count 	1
attr interpolationmode  none
attr title  "packets dropped (wrong port), count"
scalar scenarioPRJP1.node[2].udp 	passedUpPk:count 	717
attr interpolationmode  none
attr title  "packets passed up, count"
scalar scenarioPRJP1.node[2].udp 	rcvdPk:count 	718
attr interpolationmode  none
attr source  rcvdPk
attr title  "packets received, count"
scalar scenarioPRJP1.node[2].udp 	rcvdPk:sum(packetBytes) 	373360
attr interpolationmode  none
attr source  rcvdPk
attr title  "packets received, sum(packetBytes)"
scalar scenarioPRJP1.node[2].udp 	sentPk:count 	5013
attr interpolationmode  none
attr source  sentPk
attr title  "packets sent, count"
scalar scenarioPRJP1.node[2].udp 	sentPk:sum(packetBytes) 	2606760
attr interpolationmode  none
attr source  sentPk
attr title  "packets sent, sum(packetBytes)"
scalar scenarioPRJP1.node[2].networkLayer.arp 	failedARPResolution:count 	15
attr title  "ARP failed resolutions, count"
scalar scenarioPRJP1.node[2].networkLayer.arp 	completedARPResolution:count 	842
attr title  "ARP completed resolutions, count"
scalar scenarioPRJP1.node[2].networkLayer.arp 	initiatedARPResolution:count 	110
attr title  "ARP initiated resolutions, count"
scalar scenarioPRJP1.node[2].networkLayer.arp 	sentReply:count 	80
attr title  "ARP replies sent, count"
scalar scenarioPRJP1.node[2].networkLayer.arp 	sentReq:count 	185
attr title  "ARP request sent, count"
scalar scenarioPRJP1.node[2].mobility 	startTime 	0.1
scalar scenarioPRJP1.node[2].mobility 	totalTime 	1899.9
scalar scenarioPRJP1.node[2].mobility 	stopTime 	1900
scalar scenarioPRJP1.node[2].mobility 	minSpeed 	2.4756088216899e-13
scalar scenarioPRJP1.node[2].mobility 	maxSpeed 	20.871402842211
scalar scenarioPRJP1.node[2].mobility 	totalDistance 	21239.289331183
scalar scenarioPRJP1.node[2].mobility 	totalCO2Emission 	5813.113945072
scalar scenarioPRJP1.node[2].wlan.mgmt 	dataQueueLen:max 	60
attr interpolationmode  sample-hold
attr title  "data queue length, max"
scalar scenarioPRJP1.node[2].wlan.mgmt 	dataQueueLen:timeavg 	0.00041815387942523
attr interpolationmode  sample-hold
attr title  "data queue length, timeavg"
scalar scenarioPRJP1.node[2].wlan.mgmt 	dropPkByQueue:count 	0
attr interpolationmode  none
attr source  dropPkByQueue
attr title  "packets dropped by queue, count"
scalar scenarioPRJP1.node[2].wlan.mgmt 	dropPkByQueue:sum(packetBytes) 	0
attr interpolationmode  none
attr source  dropPkByQueue
attr title  "packets dropped by queue, sum(packetBytes)"
scalar scenarioPRJP1.node[2].wlan.mac 	"number of received packets" 	16784
scalar scenarioPRJP1.node[2].wlan.mac 	"number of collisions" 	105544
scalar scenarioPRJP1.node[2].wlan.mac 	"number of internal collisions" 	2
scalar scenarioPRJP1.node[2].wlan.mac 	"number of retry for AC 0" 	46542
scalar scenarioPRJP1.node[2].wlan.mac 	"number of retry for AC 1" 	14
scalar scenarioPRJP1.node[2].wlan.mac 	"number of retry for AC 2" 	0
scalar scenarioPRJP1.node[2].wlan.mac 	"number of retry for AC 3" 	0
scalar scenarioPRJP1.node[2].wlan.mac 	"sent and received bits" 	52614464
scalar scenarioPRJP1.node[2].wlan.mac 	"sent packet within AC 0" 	16184
scalar scenarioPRJP1.node[2].wlan.mac 	"sent packet within AC 1" 	9
scalar scenarioPRJP1.node[2].wlan.mac 	"sent packet within AC 2" 	0
scalar scenarioPRJP1.node[2].wlan.mac 	"sent packet within AC 3" 	0
scalar scenarioPRJP1.node[2].wlan.mac 	"sent in TXOP " 	0
scalar scenarioPRJP1.node[2].wlan.mac 	"sentWithoutRetry AC 0" 	12604
scalar scenarioPRJP1.node[2].wlan.mac 	"sentWithoutRetry AC 1" 	6
scalar scenarioPRJP1.node[2].wlan.mac 	"sentWithoutRetry AC 2" 	0
scalar scenarioPRJP1.node[2].wlan.mac 	"sentWithoutRetry AC 3" 	0
scalar scenarioPRJP1.node[2].wlan.mac 	"numGivenUp AC 0" 	6168
scalar scenarioPRJP1.node[2].wlan.mac 	"numGivenUp AC 1" 	1
scalar scenarioPRJP1.node[2].wlan.mac 	"numGivenUp AC 2" 	0
scalar scenarioPRJP1.node[2].wlan.mac 	"numGivenUp AC 3" 	0
scalar scenarioPRJP1.node[2].wlan.mac 	"numDropped AC 0" 	11
scalar scenarioPRJP1.node[2].wlan.mac 	"numDropped AC 1" 	0
scalar scenarioPRJP1.node[2].wlan.mac 	"numDropped AC 2" 	0
scalar scenarioPRJP1.node[2].wlan.mac 	"numDropped AC 3" 	0
scalar scenarioPRJP1.node[2].wlan.mac 	rcvdPkFromLL:count 	480865
attr interpolationmode  none
attr source  packetReceivedFromLower
attr title  "packets received from lower layer, count"
scalar scenarioPRJP1.node[2].wlan.mac 	rcvdPkFromLL:sum(packetBytes) 	135764372
attr interpolationmode  none
attr source  packetReceivedFromLower
attr title  "packets received from lower layer, sum(packetBytes)"
scalar scenarioPRJP1.node[2].wlan.mac 	sentDownPk:count 	110944
attr interpolationmode  none
attr source  packetSentToLower
attr title  "packets sent to lower layer, count"
scalar scenarioPRJP1.node[2].wlan.mac 	sentDownPk:sum(packetBytes) 	31448760
attr interpolationmode  none
attr source  packetSentToLower
attr title  "packets sent to lower layer, sum(packetBytes)"
scalar scenarioPRJP1.node[2].wlan.mac 	rcvdPkFromHL:count 	47617
attr interpolationmode  none
attr source  packetReceivedFromUpper
attr title  "packets received from higher layer, count"
scalar scenarioPRJP1.node[2].wlan.mac 	rcvdPkFromHL:sum(packetBytes) 	9595508
attr interpolationmode  none
attr source  packetReceivedFromUpper
attr title  "packets received from higher layer, sum(packetBytes)"
scalar scenarioPRJP1.node[2].wlan.mac 	passedUpPk:count 	88144
attr interpolationmode  none
attr source  packetSentToUpper
attr title  "packets passed to higher layer, count"
scalar scenarioPRJP1.node[2].wlan.mac 	passedUpPk:sum(packetBytes) 	10113240
attr interpolationmode  none
attr source  packetSentToUpper
attr title  "packets passed to higher layer, sum(packetBytes)"
statistic scenarioPRJP1.node[2].wlan.radio 	radioChannel:histogram
field count 1
field mean 3
field stddev -nan
field sum 3
field sqrsum 9
field min 3
field max 3
attr interpolationmode  sample-hold
attr source  radioChannelChanged
attr title  "Radio channel, histogram"
bin	-INF	0
bin	2	0
bin	3	1
bin	4	0
scalar scenarioPRJP1.node[2].wlan.radio 	transmissionState:count 	443776
attr interpolationmode  sample-hold
attr source  transmissionStateChanged
attr title  "Radio transmission state, count"
scalar scenarioPRJP1.node[2].wlan.radio 	receptionState:count 	2008032
attr interpolationmode  sample-hold
attr source  receptionStateChanged
attr title  "Radio reception state, count"
scalar scenarioPRJP1.node[2].wlan.radio 	radioMode:count 	221890
attr interpolationmode  sample-hold
attr source  radioModeChanged
attr title  "Radio mode, count"
statistic scenarioPRJP1.node[2].wlan.radio 	symbolErrorRate:histogram
field count 0
field mean -nan
field stddev -nan
field sum 0
field sqrsum 0
field min -nan
field max -nan
attr source  symbolErrorRate
attr title  "Symbol error rate, histogram"
bin	-INF	0
bin	-0.5	0
bin	-0.46666666666667	0
bin	-0.43333333333333	0
bin	-0.4	0
bin	-0.36666666666667	0
bin	-0.33333333333333	0
bin	-0.3	0
bin	-0.26666666666667	0
bin	-0.23333333333333	0
bin	-0.2	0
bin	-0.16666666666667	0
bin	-0.13333333333333	0
bin	-0.1	0
bin	-0.066666666666667	0
bin	-0.033333333333333	0
bin	0	0
bin	0.033333333333333	0
bin	0.066666666666667	0
bin	0.1	0
bin	0.13333333333333	0
bin	0.16666666666667	0
bin	0.2	0
bin	0.23333333333333	0
bin	0.26666666666667	0
bin	0.3	0
bin	0.33333333333333	0
bin	0.36666666666667	0
bin	0.4	0
bin	0.43333333333333	0
bin	0.46666666666667	0
bin	0.5	0
statistic scenarioPRJP1.node[2].wlan.radio 	bitErrorRate:histogram
field count 0
field mean -nan
field stddev -nan
field sum 0
field sqrsum 0
field min -nan
field max -nan
attr source  bitErrorRate
attr title  "Bit error rate, histogram"
bin	-INF	0
bin	-0.5	0
bin	-0.46666666666667	0
bin	-0.43333333333333	0
bin	-0.4	0
bin	-0.36666666666667	0
bin	-0.33333333333333	0
bin	-0.3	0
bin	-0.26666666666667	0
bin	-0.23333333333333	0
bin	-0.2	0
bin	-0.16666666666667	0
bin	-0.13333333333333	0
bin	-0.1	0
bin	-0.066666666666667	0
bin	-0.033333333333333	0
bin	0	0
bin	0.033333333333333	0
bin	0.066666666666667	0
bin	0.1	0
bin	0.13333333333333	0
bin	0.16666666666667	0
bin	0.2	0
bin	0.23333333333333	0
bin	0.26666666666667	0
bin	0.3	0
bin	0.33333333333333	0
bin	0.36666666666667	0
bin	0.4	0
bin	0.43333333333333	0
bin	0.46666666666667	0
bin	0.5	0
statistic scenarioPRJP1.node[2].wlan.radio 	packetErrorRate:histogram
field count 480865
field mean 0.20522091394555
field stddev 0.39447262449976
field sum 98683.554784428
field sqrsum 95078.527889406
field min 0
field max 1
attr source  packetErrorRate
attr title  "Packet error rate, histogram"
bin	-INF	0
bin	-0.14406846267513	0
bin	-0.12485933431844	0
bin	-0.10565020596176	0
bin	-0.086441077605076	0
bin	-0.067231949248392	0
bin	-0.048022820891709	0
bin	-0.028813692535025	0
bin	-0.0096045641783417	360991
bin	0.0096045641783417	5616
bin	0.028813692535025	2802
bin	0.048022820891709	1812
bin	0.067231949248392	1355
bin	0.086441077605076	1119
bin	0.10565020596176	998
bin	0.12485933431844	785
bin	0.14406846267513	721
bin	0.16327759103181	671
bin	0.18248671938849	583
bin	0.20169584774518	514
bin	0.22090497610186	531
bin	0.24011410445854	450
bin	0.25932323281523	446
bin	0.27853236117191	422
bin	0.29774148952859	398
bin	0.31695061788528	376
bin	0.33615974624196	364
bin	0.35536887459864	323
bin	0.37457800295533	340
bin	0.39378713131201	347
bin	0.4129962596687	318
bin	0.43220538802538	98583
statistic scenarioPRJP1.node[2].wlan.radio 	minSNIR:histogram
field count 480865
field mean 11105.930248303
field stddev 127305.3211336
field sum 5340453148.8501
field sqrsum 7.8525027399494e+15
field min 0.00013084861687377
field max 8311592.8049834
attr source  minSNIR
attr title  "Min SNIR, histogram"
bin	-INF	0
bin	-20.670730164263	0
bin	-17.663136487406	0
bin	-14.655542810548	0
bin	-11.647949133691	0
bin	-8.6403554568334	0
bin	-5.6327617799759	0
bin	-2.6251681031185	3644
bin	0.38242557373898	99440
bin	3.3900192505964	57233
bin	6.3976129274539	32239
bin	9.4052066043113	20474
bin	12.412800281169	14753
bin	15.420393958026	10542
bin	18.427987634884	8026
bin	21.435581311741	6350
bin	24.443174988599	5473
bin	27.450768665456	4540
bin	30.458362342313	4030
bin	33.465956019171	3538
bin	36.473549696028	3090
bin	39.481143372886	2647
bin	42.488737049743	2427
bin	45.496330726601	2213
bin	48.503924403458	1954
bin	51.511518080316	1721
bin	54.519111757173	1677
bin	57.526705434031	1563
bin	60.534299110888	1476
bin	63.541892787745	1461
bin	66.549486464603	1332
bin	69.55708014146	189022
scalar scenarioPRJP1.node[2].lo0.lo 	droppedPkBitError:count 	0
attr interpolationmode  none
attr source  dropPkBitError
attr title  "packets dropped/bit error, count"
scalar scenarioPRJP1.node[2].lo0.lo 	droppedPkBitError:sum(packetBytes) 	0
attr interpolationmode  none
attr source  dropPkBitError
attr title  "packets dropped/bit error, sum(packetBytes)"
scalar scenarioPRJP1.node[2].lo0.lo 	rcvdPkFromHL:count 	718
attr interpolationmode  none
attr source  packetReceivedFromUpper
attr title  "packets received from higher layer, count"
scalar scenarioPRJP1.node[2].lo0.lo 	rcvdPkFromHL:sum(packetBytes) 	373360
attr interpolationmode  none
attr source  packetReceivedFromUpper
attr title  "packets received from higher layer, sum(packetBytes)"
scalar scenarioPRJP1.node[2].lo0.lo 	passedUpPk:count 	718
attr interpolationmode  none
attr source  packetSentToUpper
attr title  "packets passed to higher layer, count"
scalar scenarioPRJP1.node[2].lo0.lo 	passedUpPk:sum(packetBytes) 	373360
attr interpolationmode  none
attr source  packetSentToUpper
attr title  "packets passed to higher layer, sum(packetBytes)"
scalar scenarioPRJP1.node[21].app 	"Total sent" 	5023
scalar scenarioPRJP1.node[21].app 	"Total received" 	647
scalar scenarioPRJP1.node[21].app 	"Total deleted" 	59
scalar scenarioPRJP1.node[21].app 	dropPk:count 	59
attr interpolationmode  none
attr source  dropPk
attr title  "packets dropped, count"
scalar scenarioPRJP1.node[21].app 	dropPk:sum(packetBytes) 	30208
attr interpolationmode  none
attr source  dropPk
attr title  "packets dropped, sum(packetBytes)"
scalar scenarioPRJP1.node[21].app 	outOfOrderPk:count 	24
attr interpolationmode  none
attr source  outOfOrderPk
attr title  "packets received out of order, count"
scalar scenarioPRJP1.node[21].app 	outOfOrderPk:sum(packetBytes) 	12288
attr interpolationmode  none
attr source  outOfOrderPk
attr title  "packets received out of order, sum(packetBytes)"
scalar scenarioPRJP1.node[21].app 	rcvdPk:count 	647
attr interpolationmode  none
attr source  rcvdPk
attr title  "packets received, count"
scalar scenarioPRJP1.node[21].app 	rcvdPk:sum(packetBytes) 	331264
attr interpolationmode  none
attr source  rcvdPk
attr title  "packets received, sum(packetBytes)"
statistic scenarioPRJP1.node[21].app 	endToEndDelay:histogram
field count 647
field mean 2.6858476162894
field stddev 4.7572857255965
field sum 1737.7434077392
field sqrsum 19287.435778226
field min 0.000902325548
field max 19.830327233135
attr interpolationmode  none
attr source  messageAge(rcvdPk)
attr title  "delay, histogram"
attr unit  s
bin	-INF	0
bin	-8.302113458905	0
bin	-7.195038822791	0
bin	-6.087964186677	0
bin	-4.980889550563	0
bin	-3.873814914449	0
bin	-2.766740278335	0
bin	-1.659665642221	0
bin	-0.552591006107	368
bin	0.554483630007	90
bin	1.661558266121	35
bin	2.768632902235	11
bin	3.875707538349	18
bin	4.982782174463	15
bin	6.089856810577	17
bin	7.196931446691	14
bin	8.304006082805	6
bin	9.411080718919	7
bin	10.518155355033	8
bin	11.625229991147	6
bin	12.732304627261	11
bin	13.839379263375	11
bin	14.946453899489	5
bin	16.053528535603	8
bin	17.160603171717	6
bin	18.267677807831	7
bin	19.374752443945	4
bin	20.481827080059	0
bin	21.588901716173	0
bin	22.695976352287	0
bin	23.803050988401	0
bin	24.910125624515	0
scalar scenarioPRJP1.node[21].app 	sentPk:count 	5023
attr interpolationmode  none
attr source  sentPk
attr title  "packets sent, count"
scalar scenarioPRJP1.node[21].app 	sentPk:sum(packetBytes) 	2571776
attr interpolationmode  none
attr source  sentPk
attr title  "packets sent, sum(packetBytes)"
scalar scenarioPRJP1.node[21].udp 	droppedPkBadChecksum:count 	0
attr interpolationmode  none
attr title  "packets dropped (checksum error), count"
scalar scenarioPRJP1.node[21].udp 	droppedPkWrongPort:count 	5
attr interpolationmode  none
attr title  "packets dropped (wrong port), count"
scalar scenarioPRJP1.node[21].udp 	passedUpPk:count 	730
attr interpolationmode  none
attr title  "packets passed up, count"
scalar scenarioPRJP1.node[21].udp 	rcvdPk:count 	735
attr interpolationmode  none
attr source  rcvdPk
attr title  "packets received, count"
scalar scenarioPRJP1.node[21].udp 	rcvdPk:sum(packetBytes) 	382200
attr interpolationmode  none
attr source  rcvdPk
attr title  "packets received, sum(packetBytes)"
scalar scenarioPRJP1.node[21].udp 	sentPk:count 	5023
attr interpolationmode  none
attr source  sentPk
attr title  "packets sent, count"
scalar scenarioPRJP1.node[21].udp 	sentPk:sum(packetBytes) 	2611960
attr interpolationmode  none
attr source  sentPk
attr title  "packets sent, sum(packetBytes)"
scalar scenarioPRJP1.node[21].networkLayer.arp 	failedARPResolution:count 	21
attr title  "ARP failed resolutions, count"
scalar scenarioPRJP1.node[21].networkLayer.arp 	completedARPResolution:count 	843
attr title  "ARP completed resolutions, count"
scalar scenarioPRJP1.node[21].networkLayer.arp 	initiatedARPResolution:count 	130
attr title  "ARP initiated resolutions, count"
scalar scenarioPRJP1.node[21].networkLayer.arp 	sentReply:count 	84
attr title  "ARP replies sent, count"
scalar scenarioPRJP1.node[21].networkLayer.arp 	sentReq:count 	221
attr title  "ARP request sent, count"
scalar scenarioPRJP1.node[21].mobility 	startTime 	2.5
scalar scenarioPRJP1.node[21].mobility 	totalTime 	1897.5
scalar scenarioPRJP1.node[21].mobility 	stopTime 	1900
scalar scenarioPRJP1.node[21].mobility 	minSpeed 	2.4755019921253e-13
scalar scenarioPRJP1.node[21].mobility 	maxSpeed 	16.384261185552
scalar scenarioPRJP1.node[21].mobility 	totalDistance 	21212.918133676
scalar scenarioPRJP1.node[21].mobility 	totalCO2Emission 	5015.6030582838
scalar scenarioPRJP1.node[21].wlan.mgmt 	dataQueueLen:max 	69
attr interpolationmode  sample-hold
attr title  "data queue length, max"
scalar scenarioPRJP1.node[21].wlan.mgmt 	dataQueueLen:timeavg 	0.020098950189782
attr interpolationmode  sample-hold
attr title  "data queue length, timeavg"
scalar scenarioPRJP1.node[21].wlan.mgmt 	dropPkByQueue:count 	0
attr interpolationmode  none
attr source  dropPkByQueue
attr title  "packets dropped by queue, count"
scalar scenarioPRJP1.node[21].wlan.mgmt 	dropPkByQueue:sum(packetBytes) 	0
attr interpolationmode  none
attr source  dropPkByQueue
attr title  "packets dropped by queue, sum(packetBytes)"
scalar scenarioPRJP1.node[21].wlan.mac 	"number of received packets" 	21181
scalar scenarioPRJP1.node[21].wlan.mac 	"number of collisions" 	140431
scalar scenarioPRJP1.node[21].wlan.mac 	"number of internal collisions" 	0
scalar scenarioPRJP1.node[21].wlan.mac 	"number of retry for AC 0" 	58338
scalar scenarioPRJP1.node[21].wlan.mac 	"number of retry for AC 1" 	10
scalar scenarioPRJP1.node[21].wlan.mac 	"number of retry for AC 2" 	0
scalar scenarioPRJP1.node[21].wlan.mac 	"number of retry for AC 3" 	0
scalar scenarioPRJP1.node[21].wlan.mac 	"sent and received bits" 	62196576
scalar scenarioPRJP1.node[21].wlan.mac 	"sent packet within AC 0" 	20622
scalar scenarioPRJP1.node[21].wlan.mac 	"sent packet within AC 1" 	7
scalar scenarioPRJP1.node[21].wlan.mac 	"sent packet within AC 2" 	0
scalar scenarioPRJP1.node[21].wlan.mac 	"sent packet within AC 3" 	0
scalar scenarioPRJP1.node[21].wlan.mac 	"sent in TXOP " 	0
scalar scenarioPRJP1.node[21].wlan.mac 	"sentWithoutRetry AC 0" 	15895
scalar scenarioPRJP1.node[21].wlan.mac 	"sentWithoutRetry AC 1" 	6
scalar scenarioPRJP1.node[21].wlan.mac 	"sentWithoutRetry AC 2" 	0
scalar scenarioPRJP1.node[21].wlan.mac 	"sentWithoutRetry AC 3" 	0
scalar scenarioPRJP1.node[21].wlan.mac 	"numGivenUp AC 0" 	7631
scalar scenarioPRJP1.node[21].wlan.mac 	"numGivenUp AC 1" 	1
scalar scenarioPRJP1.node[21].wlan.mac 	"numGivenUp AC 2" 	0
scalar scenarioPRJP1.node[21].wlan.mac 	"numGivenUp AC 3" 	0
scalar scenarioPRJP1.node[21].wlan.mac 	"numDropped AC 0" 	176
scalar scenarioPRJP1.node[21].wlan.mac 	"numDropped AC 1" 	0
scalar scenarioPRJP1.node[21].wlan.mac 	"numDropped AC 2" 	0
scalar scenarioPRJP1.node[21].wlan.mac 	"numDropped AC 3" 	0
scalar scenarioPRJP1.node[21].wlan.mac 	rcvdPkFromLL:count 	560340
attr interpolationmode  none
attr source  packetReceivedFromLower
attr title  "packets received from lower layer, count"
scalar scenarioPRJP1.node[21].wlan.mac 	rcvdPkFromLL:sum(packetBytes) 	158621064
attr interpolationmode  none
attr source  packetReceivedFromLower
attr title  "packets received from lower layer, sum(packetBytes)"
scalar scenarioPRJP1.node[21].wlan.mac 	sentDownPk:count 	131580
attr interpolationmode  none
attr source  packetSentToLower
attr title  "packets sent to lower layer, count"
scalar scenarioPRJP1.node[21].wlan.mac 	sentDownPk:sum(packetBytes) 	37581414
attr interpolationmode  none
attr source  packetSentToLower
attr title  "packets sent to lower layer, sum(packetBytes)"
scalar scenarioPRJP1.node[21].wlan.mac 	rcvdPkFromHL:count 	52227
attr interpolationmode  none
attr source  packetReceivedFromUpper
attr title  "packets received from higher layer, count"
scalar scenarioPRJP1.node[21].wlan.mac 	rcvdPkFromHL:sum(packetBytes) 	11388504
attr interpolationmode  none
attr source  packetReceivedFromUpper
attr title  "packets received from higher layer, sum(packetBytes)"
scalar scenarioPRJP1.node[21].wlan.mac 	passedUpPk:count 	92457
attr interpolationmode  none
attr source  packetSentToUpper
[...]
attr title  "packets passed to higher layer, sum(packetBytes)"
statistic scenarioPRJP1.node[19].wlan.radio 	radioChannel:histogram
field count 1
field mean 3
field stddev -nan
field sum 3
field sqrsum 9
field min 3
field max 3
attr interpolationmode  sample-hold
attr source  radioChannelChanged
attr title  "Radio channel, histogram"
bin	-INF	0
bin	2	0
bin	3	1
bin	4	0
scalar scenarioPRJP1.node[19].wlan.radio 	transmissionState:count 	489028
attr interpolationmode  sample-hold
attr source  transmissionStateChanged
attr title  "Radio transmission state, count"
scalar scenarioPRJP1.node[19].wlan.radio 	receptionState:count 	2297473
attr interpolationmode  sample-hold
attr source  receptionStateChanged
attr title  "Radio reception state, count"
scalar scenarioPRJP1.node[19].wlan.radio 	radioMode:count 	244516
attr interpolationmode  sample-hold
attr source  radioModeChanged
attr title  "Radio mode, count"
statistic scenarioPRJP1.node[19].wlan.radio 	symbolErrorRate:histogram
field count 0
field mean -nan
field stddev -nan
field sum 0
field sqrsum 0
field min -nan
field max -nan
attr source  symbolErrorRate
attr title  "Symbol error rate, histogram"
bin	-INF	0
bin	-0.5	0
bin	-0.46666666666667	0
bin	-0.43333333333333	0
bin	-0.4	0
bin	-0.36666666666667	0
bin	-0.33333333333333	0
bin	-0.3	0
bin	-0.26666666666667	0
bin	-0.23333333333333	0
bin	-0.2	0
bin	-0.16666666666667	0
bin	-0.13333333333333	0
bin	-0.1	0
bin	-0.066666666666667	0
bin	-0.033333333333333	0
bin	0	0
bin	0.033333333333333	0
bin	0.066666666666667	0
bin	0.1	0
bin	0.13333333333333	0
bin	0.16666666666667	0
bin	0.2	0
bin	0.23333333333333	0
bin	0.26666666666667	0
bin	0.3	0
bin	0.33333333333333	0
bin	0.36666666666667	0
bin	0.4	0
bin	0.43333333333333	0
bin	0.46666666666667	0
bin	0.5	0
statistic scenarioPRJP1.node[19].wlan.radio 	bitErrorRate:histogram
field count 0
field mean -nan
field stddev -nan
field sum 0
field sqrsum 0
field min -nan
field max -nan
attr source  bitErrorRate
attr title  "Bit error rate, histogram"
bin	-INF	0
bin	-0.5	0
bin	-0.46666666666667	0
bin	-0.43333333333333	0
bin	-0.4	0
bin	-0.36666666666667	0
bin	-0.33333333333333	0
bin	-0.3	0
bin	-0.26666666666667	0
bin	-0.23333333333333	0
bin	-0.2	0
bin	-0.16666666666667	0
bin	-0.13333333333333	0
bin	-0.1	0
bin	-0.066666666666667	0
bin	-0.033333333333333	0
bin	0	0
bin	0.033333333333333	0
bin	0.066666666666667	0
bin	0.1	0
bin	0.13333333333333	0
bin	0.16666666666667	0
bin	0.2	0
bin	0.23333333333333	0
bin	0.26666666666667	0
bin	0.3	0
bin	0.33333333333333	0
bin	0.36666666666667	0
bin	0.4	0
bin	0.43333333333333	0
bin	0.46666666666667	0
bin	0.5	0
statistic scenarioPRJP1.node[19].wlan.radio 	packetErrorRate:histogram
field count 603830
field mean 0.21642036789509
field stddev 0.40284775474498
field sum 130681.11074609
field sqrsum 126275.23646085
field min 0
field max 1
attr source  packetErrorRate
attr title  "Packet error rate, histogram"
bin	-INF	0
bin	-0.5	0
bin	-0.43333333333333	0
bin	-0.36666666666667	0
bin	-0.3	0
bin	-0.23333333333333	0
bin	-0.16666666666667	0
bin	-0.1	0
bin	-0.033333333333333	455128
bin	0.033333333333333	7249
bin	0.1	3694
bin	0.16666666666667	2370
bin	0.23333333333333	1888
bin	0.3	1537
bin	0.36666666666667	1376
bin	0.43333333333333	1288
bin	0.5	1178
bin	0.56666666666667	1107
bin	0.63333333333333	1144
bin	0.7	1288
bin	0.76666666666667	1298
bin	0.83333333333333	1550
bin	0.9	2443
bin	0.96666666666667	119292
bin	1.0333333333333	0
bin	1.1	0
bin	1.1666666666667	0
bin	1.2333333333333	0
bin	1.3	0
bin	1.3666666666667	0
bin	1.4333333333333	0
bin	1.5	0
statistic scenarioPRJP1.node[19].wlan.radio 	minSNIR:histogram
field count 603830
field mean 13142.620509053
field stddev 148741.57762405
field sum 7935908541.9817
field sqrsum 1.346344579674e+16
field min 0.00010561107836997
field max 29335292.214854
attr source  minSNIR
attr title  "Min SNIR, histogram"
bin	-INF	0
bin	-217.12416197653	0
bin	-188.14272520905	0
bin	-159.16128844157	0
bin	-130.17985167409	0
bin	-101.19841490661	0
bin	-72.216978139132	0
bin	-43.235541371652	0
bin	-14.254104604171	283259
bin	14.727332163309	62204
bin	43.708768930789	20005
bin	72.69020569827	12362
bin	101.67164246575	9454
bin	130.65307923323	8047
bin	159.63451600071	7289
bin	188.61595276819	6360
bin	217.59738953567	5743
bin	246.57882630315	5287
bin	275.56026307063	4792
bin	304.54169983811	6528
bin	333.52313660559	7738
bin	362.50457337307	6502
bin	391.48601014055	5702
bin	420.46744690803	4976
bin	449.44888367551	4318
bin	478.43032044299	4003
bin	507.41175721047	3801
bin	536.39319397796	3201
bin	565.37463074544	2989
bin	594.35606751292	2830
bin	623.3375042804	2709
bin	652.31894104788	123731
scalar scenarioPRJP1.node[19].lo0.lo 	droppedPkBitError:count 	0
attr interpolationmode  none
attr source  dropPkBitError
attr title  "packets dropped/bit error, count"
scalar scenarioPRJP1.node[19].lo0.lo 	droppedPkBitError:sum(packetBytes) 	0
attr interpolationmode  none
attr source  dropPkBitError
attr title  "packets dropped/bit error, sum(packetBytes)"
scalar scenarioPRJP1.node[19].lo0.lo 	rcvdPkFromHL:count 	722
attr interpolationmode  none
attr source  packetReceivedFromUpper
attr title  "packets received from higher layer, count"
scalar scenarioPRJP1.node[19].lo0.lo 	rcvdPkFromHL:sum(packetBytes) 	375440
attr interpolationmode  none
attr source  packetReceivedFromUpper
attr title  "packets received from higher layer, sum(packetBytes)"
scalar scenarioPRJP1.node[19].lo0.lo 	passedUpPk:count 	722
attr interpolationmode  none
attr source  packetSentToUpper
attr title  "packets passed to higher layer, count"
scalar scenarioPRJP1.node[19].lo0.lo 	passedUpPk:sum(packetBytes) 	375440
attr interpolationmode  none
attr source  packetSentToUpper
attr title  "packets passed to higher layer, sum(packetBytes)"
scalar scenarioPRJP1.node[37].app 	"Total sent" 	5001
scalar scenarioPRJP1.node[37].app 	"Total received" 	629
scalar scenarioPRJP1.node[37].app 	"Total deleted" 	49
scalar scenarioPRJP1.node[37].app 	dropPk:count 	49
attr interpolationmode  none
attr source  dropPk
attr title  "packets dropped, count"
scalar scenarioPRJP1.node[37].app 	dropPk:sum(packetBytes) 	25088
attr interpolationmode  none
attr source  dropPk
attr title  "packets dropped, sum(packetBytes)"
scalar scenarioPRJP1.node[37].app 	outOfOrderPk:count 	19
attr interpolationmode  none
attr source  outOfOrderPk
attr title  "packets received out of order, count"
scalar scenarioPRJP1.node[37].app 	outOfOrderPk:sum(packetBytes) 	9728
attr interpolationmode  none
attr source  outOfOrderPk
attr title  "packets received out of order, sum(packetBytes)"
scalar scenarioPRJP1.node[37].app 	rcvdPk:count 	629
attr interpolationmode  none
attr source  rcvdPk
attr title  "packets received, count"
scalar scenarioPRJP1.node[37].app 	rcvdPk:sum(packetBytes) 	322048
attr interpolationmode  none
attr source  rcvdPk
attr title  "packets received, sum(packetBytes)"
statistic scenarioPRJP1.node[37].app 	endToEndDelay:histogram
field count 629
field mean 2.9859430492872
field stddev 5.2661050592101
field sum 1878.1581780016
field sqrsum 23023.683003699
field min 0.000910054435
field max 19.83028366703
attr interpolationmode  none
attr source  messageAge(rcvdPk)
attr title  "delay, histogram"
attr unit  s
bin	-INF	0
bin	-9.888288523562	0
bin	-8.5697287131624	0
bin	-7.2511689027628	0
bin	-5.9326090923632	0
bin	-4.6140492819636	0
bin	-3.295489471564	0
bin	-1.9769296611644	0
bin	-0.6583698507648	368
bin	0.6601899596348	84
bin	1.9787497700344	27
bin	3.297309580434	17
bin	4.6158693908336	13
bin	5.9344292012332	11
bin	7.2529890116328	17
bin	8.5715488220324	12
bin	9.890108632432	7
bin	11.208668442832	10
bin	12.527228253231	7
bin	13.845788063631	9
bin	15.16434787403	14
bin	16.48290768443	16
bin	17.80146749483	8
bin	19.120027305229	9
bin	20.438587115629	0
bin	21.757146926028	0
bin	23.075706736428	0
bin	24.394266546828	0
bin	25.712826357227	0
bin	27.031386167627	0
bin	28.349945978026	0
bin	29.668505788426	0
scalar scenarioPRJP1.node[37].app 	sentPk:count 	5001
attr interpolationmode  none
attr source  sentPk
attr title  "packets sent, count"
scalar scenarioPRJP1.node[37].app 	sentPk:sum(packetBytes) 	2560512
attr interpolationmode  none
attr source  sentPk
attr title  "packets sent, sum(packetBytes)"
scalar scenarioPRJP1.node[37].udp 	droppedPkBadChecksum:count 	0
attr interpolationmode  none
attr title  "packets dropped (checksum error), count"
scalar scenarioPRJP1.node[37].udp 	droppedPkWrongPort:count 	3
attr interpolationmode  none
attr title  "packets dropped (wrong port), count"
scalar scenarioPRJP1.node[37].udp 	passedUpPk:count 	697
attr interpolationmode  none
attr title  "packets passed up, count"
scalar scenarioPRJP1.node[37].udp 	rcvdPk:count 	700
attr interpolationmode  none
attr source  rcvdPk
attr title  "packets received, count"
scalar scenarioPRJP1.node[37].udp 	rcvdPk:sum(packetBytes) 	364000
attr interpolationmode  none
attr source  rcvdPk
attr title  "packets received, sum(packetBytes)"
scalar scenarioPRJP1.node[37].udp 	sentPk:count 	5001
attr interpolationmode  none
attr source  sentPk
attr title  "packets sent, count"
scalar scenarioPRJP1.node[37].udp 	sentPk:sum(packetBytes) 	2600520
attr interpolationmode  none
attr source  sentPk
attr title  "packets sent, sum(packetBytes)"
scalar scenarioPRJP1.node[37].networkLayer.arp 	failedARPResolution:count 	14
attr title  "ARP failed resolutions, count"
scalar scenarioPRJP1.node[37].networkLayer.arp 	completedARPResolution:count 	1000
attr title  "ARP completed resolutions, count"
scalar scenarioPRJP1.node[37].networkLayer.arp 	initiatedARPResolution:count 	121
attr title  "ARP initiated resolutions, count"
scalar scenarioPRJP1.node[37].networkLayer.arp 	sentReply:count 	92
attr title  "ARP replies sent, count"
scalar scenarioPRJP1.node[37].networkLayer.arp 	sentReq:count 	197
attr title  "ARP request sent, count"
scalar scenarioPRJP1.node[37].mobility 	startTime 	2.5
scalar scenarioPRJP1.node[37].mobility 	totalTime 	1897.5
scalar scenarioPRJP1.node[37].mobility 	stopTime 	1900
scalar scenarioPRJP1.node[37].mobility 	minSpeed 	0
scalar scenarioPRJP1.node[37].mobility 	maxSpeed 	20.343277425337
scalar scenarioPRJP1.node[37].mobility 	totalDistance 	19508.96460796
scalar scenarioPRJP1.node[37].mobility 	totalCO2Emission 	5386.0339418247
scalar scenarioPRJP1.node[37].wlan.mgmt 	dataQueueLen:max 	29
attr interpolationmode  sample-hold
attr title  "data queue length, max"
scalar scenarioPRJP1.node[37].wlan.mgmt 	dataQueueLen:timeavg 	0.013050701360033
attr interpolationmode  sample-hold
attr title  "data queue length, timeavg"
scalar scenarioPRJP1.node[37].wlan.mgmt 	dropPkByQueue:count 	0
attr interpolationmode  none
attr source  dropPkByQueue
attr title  "packets dropped by queue, count"
scalar scenarioPRJP1.node[37].wlan.mgmt 	dropPkByQueue:sum(packetBytes) 	0
attr interpolationmode  none
attr source  dropPkByQueue
attr title  "packets dropped by queue, sum(packetBytes)"
scalar scenarioPRJP1.node[37].wlan.mac 	"number of received packets" 	18960
scalar scenarioPRJP1.node[37].wlan.mac 	"number of collisions" 	126830
scalar scenarioPRJP1.node[37].wlan.mac 	"number of internal collisions" 	0
scalar scenarioPRJP1.node[37].wlan.mac 	"number of retry for AC 0" 	54614
scalar scenarioPRJP1.node[37].wlan.mac 	"number of retry for AC 1" 	0
scalar scenarioPRJP1.node[37].wlan.mac 	"number of retry for AC 2" 	0
scalar scenarioPRJP1.node[37].wlan.mac 	"number of retry for AC 3" 	0
scalar scenarioPRJP1.node[37].wlan.mac 	"sent and received bits" 	55536128
scalar scenarioPRJP1.node[37].wlan.mac 	"sent packet within AC 0" 	18426
scalar scenarioPRJP1.node[37].wlan.mac 	"sent packet within AC 1" 	5
scalar scenarioPRJP1.node[37].wlan.mac 	"sent packet within AC 2" 	0
scalar scenarioPRJP1.node[37].wlan.mac 	"sent packet within AC 3" 	0
scalar scenarioPRJP1.node[37].wlan.mac 	"sent in TXOP " 	0
scalar scenarioPRJP1.node[37].wlan.mac 	"sentWithoutRetry AC 0" 	14391
scalar scenarioPRJP1.node[37].wlan.mac 	"sentWithoutRetry AC 1" 	5
scalar scenarioPRJP1.node[37].wlan.mac 	"sentWithoutRetry AC 2" 	0
scalar scenarioPRJP1.node[37].wlan.mac 	"sentWithoutRetry AC 3" 	0
scalar scenarioPRJP1.node[37].wlan.mac 	"numGivenUp AC 0" 	7355
scalar scenarioPRJP1.node[37].wlan.mac 	"numGivenUp AC 1" 	0
scalar scenarioPRJP1.node[37].wlan.mac 	"numGivenUp AC 2" 	0
scalar scenarioPRJP1.node[37].wlan.mac 	"numGivenUp AC 3" 	0
scalar scenarioPRJP1.node[37].wlan.mac 	"numDropped AC 0" 	167
scalar scenarioPRJP1.node[37].wlan.mac 	"numDropped AC 1" 	0
scalar scenarioPRJP1.node[37].wlan.mac 	"numDropped AC 2" 	0
scalar scenarioPRJP1.node[37].wlan.mac 	"numDropped AC 3" 	0
scalar scenarioPRJP1.node[37].wlan.mac 	rcvdPkFromLL:count 	537476
attr interpolationmode  none
attr source  packetReceivedFromLower
attr title  "packets received from lower layer, count"
scalar scenarioPRJP1.node[37].wlan.mac 	rcvdPkFromLL:sum(packetBytes) 	152866730
attr interpolationmode  none
attr source  packetReceivedFromLower
attr title  "packets received from lower layer, sum(packetBytes)"
scalar scenarioPRJP1.node[37].wlan.mac 	sentDownPk:count 	121951
attr interpolationmode  none
attr source  packetSentToLower
attr title  "packets sent to lower layer, count"
scalar scenarioPRJP1.node[37].wlan.mac 	sentDownPk:sum(packetBytes) 	34802040
attr interpolationmode  none
attr source  packetSentToLower
attr title  "packets sent to lower layer, sum(packetBytes)"
scalar scenarioPRJP1.node[37].wlan.mac 	rcvdPkFromHL:count 	48544
attr interpolationmode  none
attr source  packetReceivedFromUpper
attr title  "packets received from higher layer, count"
scalar scenarioPRJP1.node[37].wlan.mac 	rcvdPkFromHL:sum(packetBytes) 	10392732
attr interpolationmode  none
attr source  packetReceivedFromUpper
attr title  "packets received from higher layer, sum(packetBytes)"
scalar scenarioPRJP1.node[37].wlan.mac 	passedUpPk:count 	81762
attr interpolationmode  none
attr source  packetSentToUpper
attr title  "packets passed to higher layer, count"
scalar scenarioPRJP1.node[37].wlan.mac 	passedUpPk:sum(packetBytes) 	10074700
attr interpolationmode  none
attr source  packetSentToUpper
attr title  "packets passed to higher layer, sum(packetBytes)"
statistic scenarioPRJP1.node[37].wlan.radio 	radioChannel:histogram
field count 1
field mean 3
field stddev -nan
field sum 3
field sqrsum 9
field min 3
field max 3
attr interpolationmode  sample-hold
attr source  radioChannelChanged
attr title  "Radio channel, histogram"
bin	-INF	0
bin	2	0
bin	3	1
bin	4	0
scalar scenarioPRJP1.node[37].wlan.radio 	transmissionState:count 	487804
attr interpolationmode  sample-hold
attr source  transmissionStateChanged
attr title  "Radio transmission state, count"
scalar scenarioPRJP1.node[37].wlan.radio 	receptionState:count 	2266301
attr interpolationmode  sample-hold
attr source  receptionStateChanged
attr title  "Radio reception state, count"
scalar scenarioPRJP1.node[37].wlan.radio 	radioMode:count 	243904
attr interpolationmode  sample-hold
attr source  radioModeChanged
attr title  "Radio mode, count"
statistic scenarioPRJP1.node[37].wlan.radio 	symbolErrorRate:histogram
field count 0
field mean -nan
field stddev -nan
field sum 0
field sqrsum 0
field min -nan
field max -nan
attr source  symbolErrorRate
attr title  "Symbol error rate, histogram"
bin	-INF	0
bin	-0.5	0
bin	-0.46666666666667	0
bin	-0.43333333333333	0
bin	-0.4	0
bin	-0.36666666666667	0
bin	-0.33333333333333	0
bin	-0.3	0
bin	-0.26666666666667	0
bin	-0.23333333333333	0
bin	-0.2	0
bin	-0.16666666666667	0
bin	-0.13333333333333	0
bin	-0.1	0
bin	-0.066666666666667	0
bin	-0.033333333333333	0
bin	0	0
bin	0.033333333333333	0
bin	0.066666666666667	0
bin	0.1	0
bin	0.13333333333333	0
bin	0.16666666666667	0
bin	0.2	0
bin	0.23333333333333	0
bin	0.26666666666667	0
bin	0.3	0
bin	0.33333333333333	0
bin	0.36666666666667	0
bin	0.4	0
bin	0.43333333333333	0
bin	0.46666666666667	0
bin	0.5	0
statistic scenarioPRJP1.node[37].wlan.radio 	bitErrorRate:histogram
field count 0
field mean -nan
field stddev -nan
field sum 0
field sqrsum 0
field min -nan
field max -nan
attr source  bitErrorRate
attr title  "Bit error rate, histogram"
bin	-INF	0
bin	-0.5	0
bin	-0.46666666666667	0
bin	-0.43333333333333	0
bin	-0.4	0
bin	-0.36666666666667	0
bin	-0.33333333333333	0
bin	-0.3	0
bin	-0.26666666666667	0
bin	-0.23333333333333	0
bin	-0.2	0
bin	-0.16666666666667	0
bin	-0.13333333333333	0
bin	-0.1	0
bin	-0.066666666666667	0
bin	-0.033333333333333	0
bin	0	0
bin	0.033333333333333	0
bin	0.066666666666667	0
bin	0.1	0
bin	0.13333333333333	0
bin	0.16666666666667	0
bin	0.2	0
bin	0.23333333333333	0
bin	0.26666666666667	0
bin	0.3	0
bin	0.33333333333333	0
bin	0.36666666666667	0
bin	0.4	0
bin	0.43333333333333	0
bin	0.46666666666667	0
bin	0.5	0
statistic scenarioPRJP1.node[37].wlan.radio 	packetErrorRate:histogram
field count 537476
field mean 0.2215194967235
field stddev 0.40576616351431
field sum 119061.41302096
field sqrsum 114867.62959316
field min 0
field max 1
attr source  packetErrorRate
attr title  "Packet error rate, histogram"
bin	-INF	0
bin	-0.03699524294938	0
bin	-0.032062543889463	0
bin	-0.027129844829545	0
bin	-0.022197145769628	0
bin	-0.017264446709711	0
bin	-0.012331747649793	0
bin	-0.007399048589876	0
bin	-0.0024663495299587	386113
bin	0.0024663495299587	6295
bin	0.007399048589876	2941
bin	0.012331747649793	2019
bin	0.017264446709711	1467
bin	0.022197145769628	1221
bin	0.027129844829545	1002
bin	0.032062543889463	833
bin	0.03699524294938	770
bin	0.041927942009297	655
bin	0.046860641069215	628
bin	0.051793340129132	622
bin	0.05672603918905	499
bin	0.061658738248967	492
bin	0.066591437308884	438
bin	0.071524136368802	436
bin	0.076456835428719	383
bin	0.081389534488636	393
bin	0.086322233548554	395
bin	0.091254932608471	371
bin	0.096187631668388	350
bin	0.10112033072831	328
bin	0.10605302978822	265
bin	0.11098572884814	128560
statistic scenarioPRJP1.node[37].wlan.radio 	minSNIR:histogram
field count 537476
field mean 10288.304662557
field stddev 110762.7246128
field sum 5529716836.8128
field sqrsum 6.650839577448e+15
field min 0.00010537289243276
field max 3674240.3205962
attr source  minSNIR
attr title  "Min SNIR, histogram"
bin	-INF	0
bin	-744.7100736919	0
bin	-644.85239595181	0
bin	-544.99471821173	0
bin	-445.13704047165	0
bin	-345.27936273156	0
bin	-245.42168499148	0
bin	-145.56400725139	0
bin	-45.706329511306	327784
bin	54.151348228779	32277
bin	154.00902596886	17466
bin	253.86670370895	18721
bin	353.72438144903	19738
bin	453.58205918912	12943
bin	553.4397369292	8959
bin	653.29741466929	6649
bin	753.15509240937	5678
bin	853.01277014946	4426
bin	952.87044788954	3753
bin	1052.7281256296	3214
bin	1152.5858033697	2774
bin	1252.4434811098	2404
bin	1352.3011588499	2219
bin	1452.15883659	1958
bin	1552.0165143301	1923
bin	1651.8741920701	1889
bin	1751.7318698102	1665
bin	1851.5895475503	1420
bin	1951.4472252904	1277
bin	2051.3049030305	1280
bin	2151.1625807706	1183
bin	2251.0202585106	55876
scalar scenarioPRJP1.node[37].lo0.lo 	droppedPkBitError:count 	0
attr interpolationmode  none
attr source  dropPkBitError
attr title  "packets dropped/bit error, count"
scalar scenarioPRJP1.node[37].lo0.lo 	droppedPkBitError:sum(packetBytes) 	0
attr interpolationmode  none
attr source  dropPkBitError
attr title  "packets dropped/bit error, sum(packetBytes)"
scalar scenarioPRJP1.node[37].lo0.lo 	rcvdPkFromHL:count 	707
attr interpolationmode  none
attr source  packetReceivedFromUpper
attr title  "packets received from higher layer, count"
scalar scenarioPRJP1.node[37].lo0.lo 	rcvdPkFromHL:sum(packetBytes) 	364252
attr interpolationmode  none
attr source  packetReceivedFromUpper
attr title  "packets received from higher layer, sum(packetBytes)"
scalar scenarioPRJP1.node[37].lo0.lo 	passedUpPk:count 	707
attr interpolationmode  none
attr source  packetSentToUpper
attr title  "packets passed to higher layer, count"
scalar scenarioPRJP1.node[37].lo0.lo 	passedUpPk:sum(packetBytes) 	364252
attr interpolationmode  none
attr source  packetSentToUpper
attr title  "packets passed to higher layer, sum(packetBytes)"
