version 2
run DSRUU-FS-75n-14-20150619-04:41:47-28357
attr configname DSRUU-FS-75n
attr datetime 20150619-04:41:47
attr experiment DSRUU-FS-75n
attr inifile omnetpp.ini
attr iterationvars ""
attr iterationvars2 $repetition=14
attr measurement ""
attr network Prj_Part1_propag.scenarioPRJP1
attr processid 28357
attr repetition 14
attr replication #14
attr resultdir results
attr runnumber 14
attr seedset 14

scalar scenarioPRJP1.node[72].app 	"Total sent" 	4624
scalar scenarioPRJP1.node[72].app 	"Total received" 	265
scalar scenarioPRJP1.node[72].app 	"Total deleted" 	0
scalar scenarioPRJP1.node[72].app 	dropPk:count 	0
attr interpolationmode  none
attr source  dropPk
attr title  "packets dropped, count"
scalar scenarioPRJP1.node[72].app 	dropPk:sum(packetBytes) 	0
attr interpolationmode  none
attr source  dropPk
attr title  "packets dropped, sum(packetBytes)"
scalar scenarioPRJP1.node[72].app 	outOfOrderPk:count 	6
attr interpolationmode  none
attr source  outOfOrderPk
attr title  "packets received out of order, count"
scalar scenarioPRJP1.node[72].app 	outOfOrderPk:sum(packetBytes) 	3072
attr interpolationmode  none
attr source  outOfOrderPk
attr title  "packets received out of order, sum(packetBytes)"
scalar scenarioPRJP1.node[72].app 	rcvdPk:count 	265
attr interpolationmode  none
attr source  rcvdPk
attr title  "packets received, count"
scalar scenarioPRJP1.node[72].app 	rcvdPk:sum(packetBytes) 	135680
attr interpolationmode  none
attr source  rcvdPk
attr title  "packets received, sum(packetBytes)"
statistic scenarioPRJP1.node[72].app 	endToEndDelay:histogram
field count 265
field mean 0.66973386338712
field stddev 2.018383464213
field sum 177.47947379759
field sqrsum 1194.366171131
field min 0.000902494977
field max 16.933685772209
attr interpolationmode  none
attr source  messageAge(rcvdPk)
attr title  "delay, histogram"
attr unit  s
bin	-INF	0
bin	-8.465288850193	0
bin	-7.3364455336418	0
bin	-6.2076022170906	0
bin	-5.0787589005394	0
bin	-3.9499155839882	0
bin	-2.821072267437	0
bin	-1.6922289508858	0
bin	-0.5633856343346	218
bin	0.5654576822166	20
bin	1.6943009987678	11
bin	2.823144315319	4
bin	3.9519876318702	4
bin	5.0808309484214	1
bin	6.2096742649726	1
bin	7.3385175815238	1
bin	8.467360898075	0
bin	9.5962042146262	2
bin	10.725047531177	1
bin	11.853890847729	0
bin	12.98273416428	0
bin	14.111577480831	1
bin	15.240420797382	0
bin	16.369264113933	1
bin	17.498107430485	0
bin	18.626950747036	0
bin	19.755794063587	0
bin	20.884637380138	0
bin	22.013480696689	0
bin	23.142324013241	0
bin	24.271167329792	0
bin	25.400010646343	0
scalar scenarioPRJP1.node[72].app 	sentPk:count 	4624
attr interpolationmode  none
attr source  sentPk
attr title  "packets sent, count"
scalar scenarioPRJP1.node[72].app 	sentPk:sum(packetBytes) 	2367488
attr interpolationmode  none
attr source  sentPk
attr title  "packets sent, sum(packetBytes)"
scalar scenarioPRJP1.node[72].udp 	droppedPkBadChecksum:count 	0
attr interpolationmode  none
attr title  "packets dropped (checksum error), count"
scalar scenarioPRJP1.node[72].udp 	droppedPkWrongPort:count 	0
attr interpolationmode  none
attr title  "packets dropped (wrong port), count"
scalar scenarioPRJP1.node[72].udp 	passedUpPk:count 	271
attr interpolationmode  none
attr title  "packets passed up, count"
scalar scenarioPRJP1.node[72].udp 	rcvdPk:count 	271
attr interpolationmode  none
attr source  rcvdPk
attr title  "packets received, count"
scalar scenarioPRJP1.node[72].udp 	rcvdPk:sum(packetBytes) 	140920
attr interpolationmode  none
attr source  rcvdPk
attr title  "packets received, sum(packetBytes)"
scalar scenarioPRJP1.node[72].udp 	sentPk:count 	4624
attr interpolationmode  none
attr source  sentPk
attr title  "packets sent, count"
scalar scenarioPRJP1.node[72].udp 	sentPk:sum(packetBytes) 	2404480
attr interpolationmode  none
attr source  sentPk
attr title  "packets sent, sum(packetBytes)"
scalar scenarioPRJP1.node[72].networkLayer.arp 	failedARPResolution:count 	244
attr title  "ARP failed resolutions, count"
scalar scenarioPRJP1.node[72].networkLayer.arp 	completedARPResolution:count 	4547
attr title  "ARP completed resolutions, count"
scalar scenarioPRJP1.node[72].networkLayer.arp 	initiatedARPResolution:count 	361
attr title  "ARP initiated resolutions, count"
scalar scenarioPRJP1.node[72].networkLayer.arp 	sentReply:count 	95
attr title  "ARP replies sent, count"
scalar scenarioPRJP1.node[72].networkLayer.arp 	sentReq:count 	901
attr title  "ARP request sent, count"
scalar scenarioPRJP1.node[72].mobility 	startTime 	7.4
scalar scenarioPRJP1.node[72].mobility 	totalTime 	1656
scalar scenarioPRJP1.node[72].mobility 	stopTime 	1663.5
scalar scenarioPRJP1.node[72].mobility 	minSpeed 	2.4755797395578e-13
scalar scenarioPRJP1.node[72].mobility 	maxSpeed 	19.728517360809
scalar scenarioPRJP1.node[72].mobility 	totalDistance 	18223.467387521
scalar scenarioPRJP1.node[72].mobility 	totalCO2Emission 	4879.0890369007
scalar scenarioPRJP1.node[72].wlan.mgmt 	dataQueueLen:max 	9
attr interpolationmode  sample-hold
attr title  "data queue length, max"
scalar scenarioPRJP1.node[72].wlan.mgmt 	dataQueueLen:timeavg 	0.0001648340643065
attr interpolationmode  sample-hold
attr title  "data queue length, timeavg"
scalar scenarioPRJP1.node[72].wlan.mgmt 	dropPkByQueue:count 	0
attr interpolationmode  none
attr source  dropPkByQueue
attr title  "packets dropped by queue, count"
scalar scenarioPRJP1.node[72].wlan.mgmt 	dropPkByQueue:sum(packetBytes) 	0
attr interpolationmode  none
attr source  dropPkByQueue
attr title  "packets dropped by queue, sum(packetBytes)"
scalar scenarioPRJP1.node[72].wlan.mac 	"number of received packets" 	12157
scalar scenarioPRJP1.node[72].wlan.mac 	"number of collisions" 	128888
scalar scenarioPRJP1.node[72].wlan.mac 	"number of internal collisions" 	0
scalar scenarioPRJP1.node[72].wlan.mac 	"number of retry for AC 0" 	45918
scalar scenarioPRJP1.node[72].wlan.mac 	"number of retry for AC 1" 	0
scalar scenarioPRJP1.node[72].wlan.mac 	"number of retry for AC 2" 	0
scalar scenarioPRJP1.node[72].wlan.mac 	"number of retry for AC 3" 	0
scalar scenarioPRJP1.node[72].wlan.mac 	"sent and received bits" 	30678752
scalar scenarioPRJP1.node[72].wlan.mac 	"sent packet within AC 0" 	11903
scalar scenarioPRJP1.node[72].wlan.mac 	"sent packet within AC 1" 	0
scalar scenarioPRJP1.node[72].wlan.mac 	"sent packet within AC 2" 	0
scalar scenarioPRJP1.node[72].wlan.mac 	"sent packet within AC 3" 	0
scalar scenarioPRJP1.node[72].wlan.mac 	"sent in TXOP " 	0
scalar scenarioPRJP1.node[72].wlan.mac 	"sentWithoutRetry AC 0" 	9338
scalar scenarioPRJP1.node[72].wlan.mac 	"sentWithoutRetry AC 1" 	0
scalar scenarioPRJP1.node[72].wlan.mac 	"sentWithoutRetry AC 2" 	0
scalar scenarioPRJP1.node[72].wlan.mac 	"sentWithoutRetry AC 3" 	0
scalar scenarioPRJP1.node[72].wlan.mac 	"numGivenUp AC 0" 	6551
scalar scenarioPRJP1.node[72].wlan.mac 	"numGivenUp AC 1" 	0
scalar scenarioPRJP1.node[72].wlan.mac 	"numGivenUp AC 2" 	0
scalar scenarioPRJP1.node[72].wlan.mac 	"numGivenUp AC 3" 	0
scalar scenarioPRJP1.node[72].wlan.mac 	"numDropped AC 0" 	10
scalar scenarioPRJP1.node[72].wlan.mac 	"numDropped AC 1" 	0
scalar scenarioPRJP1.node[72].wlan.mac 	"numDropped AC 2" 	0
scalar scenarioPRJP1.node[72].wlan.mac 	"numDropped AC 3" 	0
scalar scenarioPRJP1.node[72].wlan.mac 	rcvdPkFromLL:count 	423944
attr interpolationmode  none
attr source  packetReceivedFromLower
attr title  "packets received from lower layer, count"
scalar scenarioPRJP1.node[72].wlan.mac 	rcvdPkFromLL:sum(packetBytes) 	139999138
attr interpolationmode  none
attr source  packetReceivedFromLower
attr title  "packets received from lower layer, sum(packetBytes)"
scalar scenarioPRJP1.node[72].wlan.mac 	sentDownPk:count 	84953
attr interpolationmode  none
attr source  packetSentToLower
attr title  "packets sent to lower layer, count"
scalar scenarioPRJP1.node[72].wlan.mac 	sentDownPk:sum(packetBytes) 	28595290
attr interpolationmode  none
attr source  packetSentToLower
attr title  "packets sent to lower layer, sum(packetBytes)"
scalar scenarioPRJP1.node[72].wlan.mac 	rcvdPkFromHL:count 	26888
attr interpolationmode  none
attr source  packetReceivedFromUpper
attr title  "packets received from higher layer, count"
scalar scenarioPRJP1.node[72].wlan.mac 	rcvdPkFromHL:sum(packetBytes) 	7037408
attr interpolationmode  none
attr source  packetReceivedFromUpper
attr title  "packets received from higher layer, sum(packetBytes)"
scalar scenarioPRJP1.node[72].wlan.mac 	passedUpPk:count 	40109
attr interpolationmode  none
attr source  packetSentToUpper
attr title  "packets passed to higher layer, count"
scalar scenarioPRJP1.node[72].wlan.mac 	passedUpPk:sum(packetBytes) 	5394836
attr interpolationmode  none
attr source  packetSentToUpper
attr title  "packets passed to higher layer, sum(packetBytes)"
statistic scenarioPRJP1.node[72].wlan.radio 	radioChannel:histogram
field count 1
field mean 3
field stddev -nan
field sum 3
field sqrsum 9
field min 3
field max 3
attr interpolationmode  sample-hold
attr source  radioChannelChanged
attr title  "Radio channel, histogram"
bin	-INF	0
bin	2	0
bin	3	1
bin	4	0
scalar scenarioPRJP1.node[72].wlan.radio 	transmissionState:count 	339810
attr interpolationmode  sample-hold
attr source  transmissionStateChanged
attr title  "Radio transmission state, count"
scalar scenarioPRJP1.node[72].wlan.radio 	receptionState:count 	2186427
attr interpolationmode  sample-hold
attr source  receptionStateChanged
attr title  "Radio reception state, count"
scalar scenarioPRJP1.node[72].wlan.radio 	radioMode:count 	169907
attr interpolationmode  sample-hold
attr source  radioModeChanged
attr title  "Radio mode, count"
statistic scenarioPRJP1.node[72].wlan.radio 	symbolErrorRate:histogram
field count 0
field mean -nan
field stddev -nan
field sum 0
field sqrsum 0
field min -nan
field max -nan
attr source  symbolErrorRate
attr title  "Symbol error rate, histogram"
bin	-INF	0
bin	-0.5	0
bin	-0.46666666666667	0
bin	-0.43333333333333	0
bin	-0.4	0
bin	-0.36666666666667	0
bin	-0.33333333333333	0
bin	-0.3	0
bin	-0.26666666666667	0
bin	-0.23333333333333	0
bin	-0.2	0
bin	-0.16666666666667	0
bin	-0.13333333333333	0
bin	-0.1	0
bin	-0.066666666666667	0
bin	-0.033333333333333	0
bin	0	0
bin	0.033333333333333	0
bin	0.066666666666667	0
bin	0.1	0
bin	0.13333333333333	0
bin	0.16666666666667	0
bin	0.2	0
bin	0.23333333333333	0
bin	0.26666666666667	0
bin	0.3	0
bin	0.33333333333333	0
bin	0.36666666666667	0
bin	0.4	0
bin	0.43333333333333	0
bin	0.46666666666667	0
bin	0.5	0
statistic scenarioPRJP1.node[72].wlan.radio 	bitErrorRate:histogram
field count 0
field mean -nan
field stddev -nan
field sum 0
field sqrsum 0
field min -nan
field max -nan
attr source  bitErrorRate
attr title  "Bit error rate, histogram"
bin	-INF	0
bin	-0.5	0
bin	-0.46666666666667	0
bin	-0.43333333333333	0
bin	-0.4	0
bin	-0.36666666666667	0
bin	-0.33333333333333	0
bin	-0.3	0
bin	-0.26666666666667	0
bin	-0.23333333333333	0
bin	-0.2	0
bin	-0.16666666666667	0
bin	-0.13333333333333	0
bin	-0.1	0
bin	-0.066666666666667	0
bin	-0.033333333333333	0
bin	0	0
bin	0.033333333333333	0
bin	0.066666666666667	0
bin	0.1	0
bin	0.13333333333333	0
bin	0.16666666666667	0
bin	0.2	0
bin	0.23333333333333	0
bin	0.26666666666667	0
bin	0.3	0
bin	0.33333333333333	0
bin	0.36666666666667	0
bin	0.4	0
bin	0.43333333333333	0
bin	0.46666666666667	0
bin	0.5	0
statistic scenarioPRJP1.node[72].wlan.radio 	packetErrorRate:histogram
field count 423944
field mean 0.2920976710397
field stddev 0.44494646148485
field sum 123833.05505125
field sqrsum 120102.46019031
field min 0
field max 1
attr source  packetErrorRate
attr title  "Packet error rate, histogram"
bin	-INF	0
bin	-0.5	0
bin	-0.43333333333333	0
bin	-0.36666666666667	0
bin	-0.3	0
bin	-0.23333333333333	0
bin	-0.16666666666667	0
bin	-0.1	0
bin	-0.033333333333333	285157
bin	0.033333333333333	5918
bin	0.1	2832
bin	0.16666666666667	2084
bin	0.23333333333333	1625
bin	0.3	1327
bin	0.36666666666667	1194
bin	0.43333333333333	1035
bin	0.5	1064
bin	0.56666666666667	1013
bin	0.63333333333333	982
bin	0.7	1008
bin	0.76666666666667	1185
bin	0.83333333333333	1315
bin	0.9	2114
bin	0.96666666666667	114091
bin	1.0333333333333	0
bin	1.1	0
bin	1.1666666666667	0
bin	1.2333333333333	0
bin	1.3	0
bin	1.3666666666667	0
bin	1.4333333333333	0
bin	1.5	0
statistic scenarioPRJP1.node[72].wlan.radio 	minSNIR:histogram
field count 423944
field mean 9963.8416012552
field stddev 142375.3833072
field sum 4224110863.8025
field sqrsum 8.6357308420896e+15
field min 0.00016560817767762
field max 4933678.6194248
attr source  minSNIR
attr title  "Min SNIR, histogram"
bin	-INF	0
bin	-2425.264604605	0
bin	-2101.7418991186	0
bin	-1778.2191936322	0
bin	-1454.6964881458	0
bin	-1131.1737826594	0
bin	-807.651077173	0
bin	-484.1283716866	0
bin	-160.60566620021	315242
bin	162.91703928618	41161
bin	486.43974477257	15074
bin	809.96245025897	7697
bin	1133.4851557454	4694
bin	1457.0078612318	3724
bin	1780.5305667181	2864
bin	2104.0532722045	2315
bin	2427.5759776909	1879
bin	2751.0986831773	1466
bin	3074.6213886637	1178
bin	3398.1440941501	1029
bin	3721.6667996365	823
bin	4045.1895051229	642
bin	4368.7122106093	710
bin	4692.2349160957	580
bin	5015.7576215821	475
bin	5339.2803270685	494
bin	5662.8030325549	438
bin	5986.3257380412	471
bin	6309.8484435276	405
bin	6633.371149014	437
bin	6956.8938545004	432
bin	7280.4165599868	19714
scalar scenarioPRJP1.node[72].lo0.lo 	droppedPkBitError:count 	0
attr interpolationmode  none
attr source  dropPkBitError
attr title  "packets dropped/bit error, count"
scalar scenarioPRJP1.node[72].lo0.lo 	droppedPkBitError:sum(packetBytes) 	0
attr interpolationmode  none
attr source  dropPkBitError
attr title  "packets dropped/bit error, sum(packetBytes)"
scalar scenarioPRJP1.node[72].lo0.lo 	rcvdPkFromHL:count 	271
attr interpolationmode  none
attr source  packetReceivedFromUpper
attr title  "packets received from higher layer, count"
scalar scenarioPRJP1.node[72].lo0.lo 	rcvdPkFromHL:sum(packetBytes) 	140920
attr interpolationmode  none
attr source  packetReceivedFromUpper
attr title  "packets received from higher layer, sum(packetBytes)"
scalar scenarioPRJP1.node[72].lo0.lo 	passedUpPk:count 	271
attr interpolationmode  none
attr source  packetSentToUpper
attr title  "packets passed to higher layer, count"
scalar scenarioPRJP1.node[72].lo0.lo 	passedUpPk:sum(packetBytes) 	140920
attr interpolationmode  none
attr source  packetSentToUpper
attr title  "packets passed to higher layer, sum(packetBytes)"
scalar scenarioPRJP1.node[65].app 	"Total sent" 	4634
scalar scenarioPRJP1.node[65].app 	"Total received" 	226
scalar scenarioPRJP1.node[65].app 	"Total deleted" 	4
scalar scenarioPRJP1.node[65].app 	dropPk:count 	4
attr interpolationmode  none
attr source  dropPk
attr title  "packets dropped, count"
scalar scenarioPRJP1.node[65].app 	dropPk:sum(packetBytes) 	2048
attr interpolationmode  none
attr source  dropPk
attr title  "packets dropped, sum(packetBytes)"
scalar scenarioPRJP1.node[65].app 	outOfOrderPk:count 	6
attr interpolationmode  none
attr source  outOfOrderPk
attr title  "packets received out of order, count"
scalar scenarioPRJP1.node[65].app 	outOfOrderPk:sum(packetBytes) 	3072
attr interpolationmode  none
attr source  outOfOrderPk
attr title  "packets received out of order, sum(packetBytes)"
scalar scenarioPRJP1.node[65].app 	rcvdPk:count 	226
attr interpolationmode  none
attr source  rcvdPk
attr title  "packets received, count"
scalar scenarioPRJP1.node[65].app 	rcvdPk:sum(packetBytes) 	115712
attr interpolationmode  none
attr source  rcvdPk
attr title  "packets received, sum(packetBytes)"
statistic scenarioPRJP1.node[65].app 	endToEndDelay:histogram
field count 226
field mean 0.95631660596033
field stddev 2.578355606763
field sum 216.12755294703
field sqrsum 1702.4678357472
field min 0.000910107467
field max 19.24559484793
attr interpolationmode  none
attr source  messageAge(rcvdPk)
attr title  "delay, histogram"
attr unit  s
bin	-INF	0
bin	-9.6213070580765	0
bin	-8.3383336400318	0
bin	-7.055360221987	0
bin	-5.7723868039423	0
bin	-4.4894133858976	0
bin	-3.2064399678528	0
bin	-1.9234665498081	0
bin	-0.64049313176337	168
bin	0.64248028628137	35
bin	1.9254537043261	8
bin	3.2084271223708	2
bin	4.4914005404156	1
bin	5.7743739584603	3
bin	7.057347376505	1
bin	8.3403207945498	2
bin	9.6232942125945	0
bin	10.906267630639	2
bin	12.189241048684	2
bin	13.472214466729	0
bin	14.755187884773	1
bin	16.038161302818	0
bin	17.321134720863	0
bin	18.604108138908	1
bin	19.887081556952	0
bin	21.170054974997	0
bin	22.453028393042	0
bin	23.736001811087	0
bin	25.018975229131	0
bin	26.301948647176	0
bin	27.584922065221	0
bin	28.867895483265	0
scalar scenarioPRJP1.node[65].app 	sentPk:count 	4634
attr interpolationmode  none
attr source  sentPk
attr title  "packets sent, count"
scalar scenarioPRJP1.node[65].app 	sentPk:sum(packetBytes) 	2372608
attr interpolationmode  none
attr source  sentPk
attr title  "packets sent, sum(packetBytes)"
scalar scenarioPRJP1.node[65].udp 	droppedPkBadChecksum:count 	0
attr interpolationmode  none
attr title  "packets dropped (checksum error), count"
scalar scenarioPRJP1.node[65].udp 	droppedPkWrongPort:count 	0
attr interpolationmode  none
attr title  "packets dropped (wrong port), count"
scalar scenarioPRJP1.node[65].udp 	passedUpPk:count 	236
attr interpolationmode  none
attr title  "packets passed up, count"
scalar scenarioPRJP1.node[65].udp 	rcvdPk:count 	236
attr interpolationmode  none
attr source  rcvdPk
attr title  "packets received, count"
scalar scenarioPRJP1.node[65].udp 	rcvdPk:sum(packetBytes) 	122720
attr interpolationmode  none
attr source  rcvdPk
attr title  "packets received, sum(packetBytes)"
scalar scenarioPRJP1.node[65].udp 	sentPk:count 	4634
attr interpolationmode  none
attr source  sentPk
attr title  "packets sent, count"
scalar scenarioPRJP1.node[65].udp 	sentPk:sum(packetBytes) 	2409680
attr interpolationmode  none
attr source  sentPk
attr title  "packets sent, sum(packetBytes)"
scalar scenarioPRJP1.node[65].networkLayer.arp 	failedARPResolution:count 	218
attr title  "ARP failed resolutions, count"
scalar scenarioPRJP1.node[65].networkLayer.arp 	completedARPResolution:count 	3507
attr title  "ARP completed resolutions, count"
scalar scenarioPRJP1.node[65].networkLayer.arp 	initiatedARPResolution:count 	307
attr title  "ARP initiated resolutions, count"
scalar scenarioPRJP1.node[65].networkLayer.arp 	sentReply:count 	76
attr title  "ARP replies sent, count"
scalar scenarioPRJP1.node[65].networkLayer.arp 	sentReq:count 	798
attr title  "ARP request sent, count"
scalar scenarioPRJP1.node[65].mobility 	startTime 	7.3
scalar scenarioPRJP1.node[65].mobility 	totalTime 	1657.1
scalar scenarioPRJP1.node[65].mobility 	stopTime 	1664.5
scalar scenarioPRJP1.node[65].mobility 	minSpeed 	2.475485634319e-13
scalar scenarioPRJP1.node[65].mobility 	maxSpeed 	16.443680165075
scalar scenarioPRJP1.node[65].mobility 	totalDistance 	18202.288434564
scalar scenarioPRJP1.node[65].mobility 	totalCO2Emission 	4390.9576408671
scalar scenarioPRJP1.node[65].wlan.mgmt 	dataQueueLen:max 	100
attr interpolationmode  sample-hold
attr title  "data queue length, max"
scalar scenarioPRJP1.node[65].wlan.mgmt 	dataQueueLen:timeavg 	0.57809255059399
attr interpolationmode  sample-hold
attr title  "data queue length, timeavg"
scalar scenarioPRJP1.node[65].wlan.mgmt 	dropPkByQueue:count 	160
attr interpolationmode  none
attr source  dropPkByQueue
attr title  "packets dropped by queue, count"
scalar scenarioPRJP1.node[65].wlan.mgmt 	dropPkByQueue:sum(packetBytes) 	26100
attr interpolationmode  none
attr source  dropPkByQueue
attr title  "packets dropped by queue, sum(packetBytes)"
scalar scenarioPRJP1.node[65].wlan.mac 	"number of received packets" 	11166
scalar scenarioPRJP1.node[65].wlan.mac 	"number of collisions" 	126728
scalar scenarioPRJP1.node[65].wlan.mac 	"number of internal collisions" 	0
scalar scenarioPRJP1.node[65].wlan.mac 	"number of retry for AC 0" 	36993
scalar scenarioPRJP1.node[65].wlan.mac 	"number of retry for AC 1" 	0
scalar scenarioPRJP1.node[65].wlan.mac 	"number of retry for AC 2" 	0
scalar scenarioPRJP1.node[65].wlan.mac 	"number of retry for AC 3" 	0
scalar scenarioPRJP1.node[65].wlan.mac 	"sent and received bits" 	28980416
scalar scenarioPRJP1.node[65].wlan.mac 	"sent packet within AC 0" 	10751
scalar scenarioPRJP1.node[65].wlan.mac 	"sent packet within AC 1" 	0
scalar scenarioPRJP1.node[65].wlan.mac 	"sent packet within AC 2" 	0
scalar scenarioPRJP1.node[65].wlan.mac 	"sent packet within AC 3" 	0
scalar scenarioPRJP1.node[65].wlan.mac 	"sent in TXOP " 	0
scalar scenarioPRJP1.node[65].wlan.mac 	"sentWithoutRetry AC 0" 	8438
scalar scenarioPRJP1.node[65].wlan.mac 	"sentWithoutRetry AC 1" 	0
scalar scenarioPRJP1.node[65].wlan.mac 	"sentWithoutRetry AC 2" 	0
scalar scenarioPRJP1.node[65].wlan.mac 	"sentWithoutRetry AC 3" 	0
scalar scenarioPRJP1.node[65].wlan.mac 	"numGivenUp AC 0" 	5181
scalar scenarioPRJP1.node[65].wlan.mac 	"numGivenUp AC 1" 	0
scalar scenarioPRJP1.node[65].wlan.mac 	"numGivenUp AC 2" 	0
scalar scenarioPRJP1.node[65].wlan.mac 	"numGivenUp AC 3" 	0
scalar scenarioPRJP1.node[65].wlan.mac 	"numDropped AC 0" 	275
scalar scenarioPRJP1.node[65].wlan.mac 	"numDropped AC 1" 	0
scalar scenarioPRJP1.node[65].wlan.mac 	"numDropped AC 2" 	0
scalar scenarioPRJP1.node[65].wlan.mac 	"numDropped AC 3" 	0
scalar scenarioPRJP1.node[65].wlan.mac 	rcvdPkFromLL:count 	398495
attr interpolationmode  none
attr source  packetReceivedFromLower
attr title  "packets received from lower layer, count"
scalar scenarioPRJP1.node[65].wlan.mac 	rcvdPkFromLL:sum(packetBytes) 	126581756
attr interpolationmode  none
attr source  packetReceivedFromLower
attr title  "packets received from lower layer, sum(packetBytes)"
scalar scenarioPRJP1.node[65].wlan.mac 	sentDownPk:count 	73368
attr interpolationmode  none
attr source  packetSentToLower
attr title  "packets sent to lower layer, count"
scalar scenarioPRJP1.node[65].wlan.mac 	sentDownPk:sum(packetBytes) 	23627592
attr interpolationmode  none
attr source  packetSentToLower
attr title  "packets sent to lower layer, sum(packetBytes)"
scalar scenarioPRJP1.node[65].wlan.mac 	rcvdPkFromHL:count 	25484
attr interpolationmode  none
attr source  packetReceivedFromUpper
attr title  "packets received from higher layer, count"
scalar scenarioPRJP1.node[65].wlan.mac 	rcvdPkFromHL:sum(packetBytes) 	6224328
attr interpolationmode  none
attr source  packetReceivedFromUpper
attr title  "packets received from higher layer, sum(packetBytes)"
scalar scenarioPRJP1.node[65].wlan.mac 	passedUpPk:count 	41154
attr interpolationmode  none
attr source  packetSentToUpper
attr title  "packets passed to higher layer, count"
scalar scenarioPRJP1.node[65].wlan.mac 	passedUpPk:sum(packetBytes) 	4900184
attr interpolationmode  none
attr source  packetSentToUpper
attr title  "packets passed to higher layer, sum(packetBytes)"
statistic scenarioPRJP1.node[65].wlan.radio 	radioChannel:histogram
field count 1
field mean 3
field stddev -nan
field sum 3
field sqrsum 9
field min 3
field max 3
attr interpolationmode  sample-hold
attr source  radioChannelChanged
attr title  "Radio channel, histogram"
bin	-INF	0
bin	2	0
bin	3	1
bin	4	0
scalar scenarioPRJP1.node[65].wlan.radio 	transmissionState:count 	293472
attr interpolationmode  sample-hold
attr source  transmissionStateChanged
attr title  "Radio transmission state, count"
scalar scenarioPRJP1.node[65].wlan.radio 	receptionState:count 	2145094
attr interpolationmode  sample-hold
attr source  receptionStateChanged
attr title  "Radio reception state, count"
scalar scenarioPRJP1.node[65].wlan.radio 	radioMode:count 	146738
attr interpolationmode  sample-hold
attr source  radioModeChanged
attr title  "Radio mode, count"
statistic scenarioPRJP1.node[65].wlan.radio 	symbolErrorRate:histogram
field count 0
field mean -nan
field stddev -nan
field sum 0
field sqrsum 0
field min -nan
field max -nan
attr source  symbolErrorRate
attr title  "Symbol error rate, histogram"
bin	-INF	0
bin	-0.5	0
bin	-0.46666666666667	0
bin	-0.43333333333333	0
bin	-0.4	0
bin	-0.36666666666667	0
bin	-0.33333333333333	0
bin	-0.3	0
bin	-0.26666666666667	0
bin	-0.23333333333333	0
bin	-0.2	0
bin	-0.16666666666667	0
bin	-0.13333333333333	0
bin	-0.1	0
bin	-0.066666666666667	0
bin	-0.033333333333333	0
bin	0	0
bin	0.033333333333333	0
bin	0.066666666666667	0
bin	0.1	0
bin	0.13333333333333	0
bin	0.16666666666667	0
bin	0.2	0
bin	0.23333333333333	0
bin	0.26666666666667	0
bin	0.3	0
bin	0.33333333333333	0
bin	0.36666666666667	0
bin	0.4	0
bin	0.43333333333333	0
bin	0.46666666666667	0
bin	0.5	0
statistic scenarioPRJP1.node[65].wlan.radio 	bitErrorRate:histogram
field count 0
field mean -nan
field stddev -nan
field sum 0
field sqrsum 0
field min -nan
field max -nan
attr source  bitErrorRate
attr title  "Bit error rate, histogram"
bin	-INF	0
bin	-0.5	0
bin	-0.46666666666667	0
bin	-0.43333333333333	0
bin	-0.4	0
bin	-0.36666666666667	0
bin	-0.33333333333333	0
bin	-0.3	0
bin	-0.26666666666667	0
bin	-0.23333333333333	0
bin	-0.2	0
bin	-0.16666666666667	0
bin	-0.13333333333333	0
bin	-0.1	0
bin	-0.066666666666667	0
bin	-0.033333333333333	0
bin	0	0
bin	0.033333333333333	0
bin	0.066666666666667	0
bin	0.1	0
bin	0.13333333333333	0
bin	0.16666666666667	0
bin	0.2	0
bin	0.23333333333333	0
bin	0.26666666666667	0
bin	0.3	0
bin	0.33333333333333	0
bin	0.36666666666667	0
bin	0.4	0
bin	0.43333333333333	0
bin	0.46666666666667	0
bin	0.5	0
statistic scenarioPRJP1.node[65].wlan.radio 	packetErrorRate:histogram
field count 398495
field mean 0.30191985423508
field stddev 0.44884159221348
field sum 120313.55231341
field sqrsum 116605.16322226
field min 0
field max 1
attr source  packetErrorRate
attr title  "Packet error rate, histogram"
bin	-INF	0
bin	-0.5	0
bin	-0.43333333333333	0
bin	-0.36666666666667	0
bin	-0.3	0
bin	-0.23333333333333	0
bin	-0.16666666666667	0
bin	-0.1	0
bin	-0.033333333333333	263278
bin	0.033333333333333	5921
bin	0.1	2847
bin	0.16666666666667	2075
bin	0.23333333333333	1535
bin	0.3	1392
bin	0.36666666666667	1185
bin	0.43333333333333	1074
bin	0.5	970
bin	0.56666666666667	986
bin	0.63333333333333	963
bin	0.7	1085
bin	0.76666666666667	1123
bin	0.83333333333333	1338
bin	0.9	2117
bin	0.96666666666667	110606
bin	1.0333333333333	0
bin	1.1	0
bin	1.1666666666667	0
bin	1.2333333333333	0
bin	1.3	0
bin	1.3666666666667	0
bin	1.4333333333333	0
bin	1.5	0
statistic scenarioPRJP1.node[65].wlan.radio 	minSNIR:histogram
field count 398495
field mean 7040.8622450643
field stddev 114112.80572043
field sum 2805748400.3469
field sqrsum 5.2088371306983e+15
field min 0.00011414913002136
field max 5560356.7367565
attr source  minSNIR
attr title  "Min SNIR, histogram"
bin	-INF	0
bin	-27128.218826897	0
bin	-23511.067619063	0
bin	-19893.916411229	0
bin	-16276.765203395	0
bin	-12659.613995561	0
bin	-9042.4627877266	0
bin	-5425.3115798926	0
bin	-1808.1603720587	365508
bin	1808.9908357753	12102
bin	5426.1420436093	4721
bin	9043.2932514433	4138
bin	12660.444459277	1916
bin	16277.595667111	1140
bin	19894.746874945	1024
bin	23511.898082779	657
bin	27129.049290613	466
bin	30746.200498447	470
bin	34363.351706281	352
bin	37980.502914115	299
bin	41597.654121949	198
bin	45214.805329783	228
bin	48831.956537617	322
bin	52449.107745451	189
bin	56066.258953285	166
bin	59683.410161119	355
bin	63300.561368953	194
bin	66917.712576787	153
bin	70534.863784621	115
bin	74152.014992455	303
bin	77769.166200289	81
bin	81386.317408123	3398
scalar scenarioPRJP1.node[65].lo0.lo 	droppedPkBitError:count 	0
attr interpolationmode  none
attr source  dropPkBitError
attr title  "packets dropped/bit error, count"
scalar scenarioPRJP1.node[65].lo0.lo 	droppedPkBitError:sum(packetBytes) 	0
attr interpolationmode  none
attr source  dropPkBitError
attr title  "packets dropped/bit error, sum(packetBytes)"
scalar scenarioPRJP1.node[65].lo0.lo 	rcvdPkFromHL:count 	236
attr interpolationmode  none
attr source  packetReceivedFromUpper
attr title  "packets received from higher layer, count"
scalar scenarioPRJP1.node[65].lo0.lo 	rcvdPkFromHL:sum(packetBytes) 	122720
attr interpolationmode  none
attr source  packetReceivedFromUpper
attr title  "packets received from higher layer, sum(packetBytes)"
scalar scenarioPRJP1.node[65].lo0.lo 	passedUpPk:count 	236
attr interpolationmode  none
attr source  packetSentToUpper
attr title  "packets passed to higher layer, count"
scalar scenarioPRJP1.node[65].lo0.lo 	passedUpPk:sum(packetBytes) 	122720
attr interpolationmode  none
attr source  packetSentToUpper
attr title  "packets passed to higher layer, sum(packetBytes)"
scalar scenarioPRJP1.node[19].app 	"Total sent" 	5013
scalar scenarioPRJP1.node[19].app 	"Total received" 	308
scalar scenarioPRJP1.node[19].app 	"Total deleted" 	5
scalar scenarioPRJP1.node[19].app 	dropPk:count 	5
attr interpolationmode  none
attr source  dropPk
attr title  "packets dropped, count"
scalar scenarioPRJP1.node[19].app 	dropPk:sum(packetBytes) 	2560
attr interpolationmode  none
attr source  dropPk
attr title  "packets dropped, sum(packetBytes)"
scalar scenarioPRJP1.node[19].app 	outOfOrderPk:count 	28
attr interpolationmode  none
attr source  outOfOrderPk
attr title  "packets received out of order, count"
scalar scenarioPRJP1.node[19].app 	outOfOrderPk:sum(packetBytes) 	14336
attr interpolationmode  none
attr source  outOfOrderPk
attr title  "packets received out of order, sum(packetBytes)"
scalar scenarioPRJP1.node[19].app 	rcvdPk:count 	308
attr interpolationmode  none
attr source  rcvdPk
attr title  "packets received, count"
scalar scenarioPRJP1.node[19].app 	rcvdPk:sum(packetBytes) 	157696
attr interpolationmode  none
attr source  rcvdPk
attr title  "packets received, sum(packetBytes)"
statistic scenarioPRJP1.node[19].app 	endToEndDelay:histogram
field count 308
field mean 0.55703408416506
field stddev 1.722302216004
field sum 171.56649792284
field sqrsum 1006.2301384823
field min 0.000957309256
field max 17.221539665145
attr interpolationmode  none
attr source  messageAge(rcvdPk)
attr title  "delay, histogram"
attr unit  s
bin	-INF	0
bin	-8.6093338686885	0
bin	-7.4612950449626	0
bin	-6.3132562212366	0
bin	-5.1652173975107	0
bin	-4.0171785737848	0
bin	-2.8691397500588	0
bin	-1.7211009263329	0
bin	-0.57306210260697	251
bin	0.57497672111896	36
bin	1.7230155448449	8
bin	2.8710543685708	4
bin	4.0190931922968	3
bin	5.1671320160227	1
bin	6.3151708397486	0
bin	7.4632096634746	1
bin	8.6112484872005	1
bin	9.7592873109264	0
bin	10.907326134652	1
bin	12.055364958378	0
bin	13.203403782104	1
bin	14.35144260583	0
bin	15.499481429556	0
bin	16.647520253282	1
bin	17.795559077008	0
bin	18.943597900734	0
bin	20.09163672446	0
bin	21.239675548186	0
bin	22.387714371912	0
bin	23.535753195638	0
bin	24.683792019364	0
bin	25.831830843089	0
scalar scenarioPRJP1.node[19].app 	sentPk:count 	5013
attr interpolationmode  none
attr source  sentPk
attr title  "packets sent, count"
scalar scenarioPRJP1.node[19].app 	sentPk:sum(packetBytes) 	2566656
attr interpolationmode  none
attr source  sentPk
attr title  "packets sent, sum(packetBytes)"
scalar scenarioPRJP1.node[19].udp 	droppedPkBadChecksum:count 	0
attr interpolationmode  none
attr title  "packets dropped (checksum error), count"
scalar scenarioPRJP1.node[19].udp 	droppedPkWrongPort:count 	0
attr interpolationmode  none
attr title  "packets dropped (wrong port), count"
scalar scenarioPRJP1.node[19].udp 	passedUpPk:count 	341
attr interpolationmode  none
attr title  "packets passed up, count"
scalar scenarioPRJP1.node[19].udp 	rcvdPk:count 	341
attr interpolationmode  none
attr source  rcvdPk
attr title  "packets received, count"
scalar scenarioPRJP1.node[19].udp 	rcvdPk:sum(packetBytes) 	177320
attr interpolationmode  none
attr source  rcvdPk
attr title  "packets received, sum(packetBytes)"
scalar scenarioPRJP1.node[19].udp 	sentPk:count 	5013
attr interpolationmode  none
attr source  sentPk
attr title  "packets sent, count"
scalar scenarioPRJP1.node[19].udp 	sentPk:sum(packetBytes) 	2606760
attr interpolationmode  none
attr source  sentPk
attr title  "packets sent, sum(packetBytes)"
scalar scenarioPRJP1.node[19].networkLayer.arp 	failedARPResolution:count 	268
attr title  "ARP failed resolutions, count"
scalar scenarioPRJP1.node[19].networkLayer.arp 	completedARPResolution:count 	4059
attr title  "ARP completed resolutions, count"
scalar scenarioPRJP1.node[19].networkLayer.arp 	initiatedARPResolution:count 	394
attr title  "ARP initiated resolutions, count"
scalar scenarioPRJP1.node[19].networkLayer.arp 	sentReply:count 	80
attr title  "ARP replies sent, count"
scalar scenarioPRJP1.node[19].networkLayer.arp 	sentReq:count 	978
attr title  "ARP request sent, count"
scalar scenarioPRJP1.node[19].mobility 	startTime 	0.1
scalar scenarioPRJP1.node[19].mobility 	totalTime 	1803.8
scalar scenarioPRJP1.node[19].mobility 	stopTime 	1804
scalar scenarioPRJP1.node[19].mobility 	minSpeed 	2.4754678694532e-13
scalar scenarioPRJP1.node[19].mobility 	maxSpeed 	21.090091018236
scalar scenarioPRJP1.node[19].mobility 	totalDistance 	19991.429367268
scalar scenarioPRJP1.node[19].mobility 	totalCO2Emission 	5582.3896494748
scalar scenarioPRJP1.node[19].wlan.mgmt 	dataQueueLen:max 	22
attr interpolationmode  sample-hold
attr title  "data queue length, max"
scalar scenarioPRJP1.node[19].wlan.mgmt 	dataQueueLen:timeavg 	0
attr interpolationmode  sample-hold
attr title  "data queue length, timeavg"
scalar scenarioPRJP1.node[19].wlan.mgmt 	dropPkByQueue:count 	0
attr interpolationmode  none
attr source  dropPkByQueue
attr title  "packets dropped by queue, count"
scalar scenarioPRJP1.node[19].wlan.mgmt 	dropPkByQueue:sum(packetBytes) 	0
attr interpolationmode  none
attr source  dropPkByQueue
attr title  "packets dropped by queue, sum(packetBytes)"
scalar scenarioPRJP1.node[19].wlan.mac 	"number of received packets" 	13365
scalar scenarioPRJP1.node[19].wlan.mac 	"number of collisions" 	139764
scalar scenarioPRJP1.node[19].wlan.mac 	"number of internal collisions" 	0
scalar scenarioPRJP1.node[19].wlan.mac 	"number of retry for AC 0" 	45934
scalar scenarioPRJP1.node[19].wlan.mac 	"number of retry for AC 1" 	0
scalar scenarioPRJP1.node[19].wlan.mac 	"number of retry for AC 2" 	0
scalar scenarioPRJP1.node[19].wlan.mac 	"number of retry for AC 3" 	0
scalar scenarioPRJP1.node[19].wlan.mac 	"sent and received bits" 	33939584
scalar scenarioPRJP1.node[19].wlan.mac 	"sent packet within AC 0" 	12963
scalar scenarioPRJP1.node[19].wlan.mac 	"sent packet within AC 1" 	0
scalar scenarioPRJP1.node[19].wlan.mac 	"sent packet within AC 2" 	0
scalar scenarioPRJP1.node[19].wlan.mac 	"sent packet within AC 3" 	0
scalar scenarioPRJP1.node[19].wlan.mac 	"sent in TXOP " 	0
scalar scenarioPRJP1.node[19].wlan.mac 	"sentWithoutRetry AC 0" 	10571
scalar scenarioPRJP1.node[19].wlan.mac 	"sentWithoutRetry AC 1" 	0
scalar scenarioPRJP1.node[19].wlan.mac 	"sentWithoutRetry AC 2" 	0
scalar scenarioPRJP1.node[19].wlan.mac 	"sentWithoutRetry AC 3" 	0
scalar scenarioPRJP1.node[19].wlan.mac 	"numGivenUp AC 0" 	6634
scalar scenarioPRJP1.node[19].wlan.mac 	"numGivenUp AC 1" 	0
scalar scenarioPRJP1.node[19].wlan.mac 	"numGivenUp AC 2" 	0
scalar scenarioPRJP1.node[19].wlan.mac 	"numGivenUp AC 3" 	0
scalar scenarioPRJP1.node[19].wlan.mac 	"numDropped AC 0" 	0
scalar scenarioPRJP1.node[19].wlan.mac 	"numDropped AC 1" 	0
scalar scenarioPRJP1.node[19].wlan.mac 	"numDropped AC 2" 	0
scalar scenarioPRJP1.node[19].wlan.mac 	"numDropped AC 3" 	0
scalar scenarioPRJP1.node[19].wlan.mac 	rcvdPkFromLL:count 	481170
attr interpolationmode  none
attr source  packetReceivedFromLower
attr title  "packets received from lower layer, count"
scalar scenarioPRJP1.node[19].wlan.mac 	rcvdPkFromLL:sum(packetBytes) 	156469746
attr interpolationmode  none
attr source  packetReceivedFromLower
attr title  "packets received from lower layer, sum(packetBytes)"
scalar scenarioPRJP1.node[19].wlan.mac 	sentDownPk:count 	88104
attr interpolationmode  none
attr source  packetSentToLower
attr title  "packets sent to lower layer, count"
scalar scenarioPRJP1.node[19].wlan.mac 	sentDownPk:sum(packetBytes) 	29078698
attr interpolationmode  none
attr source  packetSentToLower
attr title  "packets sent to lower layer, sum(packetBytes)"
scalar scenarioPRJP1.node[19].wlan.mac 	rcvdPkFromHL:count 	28805
attr interpolationmode  none
attr source  packetReceivedFromUpper
attr title  "packets received from higher layer, count"
scalar scenarioPRJP1.node[19].wlan.mac 	rcvdPkFromHL:sum(packetBytes) 	7469052
attr interpolationmode  none
attr source  packetReceivedFromUpper
attr title  "packets received from higher layer, sum(packetBytes)"
scalar scenarioPRJP1.node[19].wlan.mac 	passedUpPk:count 	46551
attr interpolationmode  none
attr source  packetSentToUpper
attr title  "packets passed to higher layer, count"
scalar scenarioPRJP1.node[19].wlan.mac 	passedUpPk:sum(packetBytes) 	6029016
attr interpolationmode  none
attr source  packetSentToUpper
attr title  "packets passed to higher layer, sum(packetBytes)"
statistic scenarioPRJP1.node[19].wlan.radio 	radioChannel:histogram
field count 1
field mean 3
field stddev -nan
field sum 3
field sqrsum 9
field min 3
field max 3
attr interpolationmode  sample-hold
attr source  radioChannelChanged
attr title  "Radio channel, histogram"
bin	-INF	0
bin	2	0
bin	3	1
bin	4	0
scalar scenarioPRJP1.node[19].wlan.radio 	transmissionState:count 	352416
attr interpolationmode  sample-hold
attr source  transmissionStateChanged
attr title  "Radio transmission state, count"
scalar scenarioPRJP1.node[19].wlan.radio 	receptionState:count 	2430973
attr interpolationmode  sample-hold
attr source  receptionStateChanged
attr title  "Radio reception state, count"
scalar scenarioPRJP1.node[19].wlan.radio 	radioMode:count 	176210
attr interpolationmode  sample-hold
attr source  radioModeChanged
attr title  "Radio mode, count"
statistic scenarioPRJP1.node[19].wlan.radio 	symbolErrorRate:histogram
field count 0
field mean -nan
field stddev -nan
field sum 0
field sqrsum 0
field min -nan
field max -nan
attr source  symbolErrorRate
attr title  "Symbol error rate, histogram"
bin	-INF	0
bin	-0.5	0
bin	-0.46666666666667	0
bin	-0.43333333333333	0
bin	-0.4	0
bin	-0.36666666666667	0
bin	-0.33333333333333	0
bin	-0.3	0
bin	-0.26666666666667	0
bin	-0.23333333333333	0
bin	-0.2	0
bin	-0.16666666666667	0
bin	-0.13333333333333	0
bin	-0.1	0
bin	-0.066666666666667	0
bin	-0.033333333333333	0
bin	0	0
bin	0.033333333333333	0
bin	0.066666666666667	0
bin	0.1	0
bin	0.13333333333333	0
bin	0.16666666666667	0
bin	0.2	0
bin	0.23333333333333	0
bin	0.26666666666667	0
bin	0.3	0
bin	0.33333333333333	0
bin	0.36666666666667	0
bin	0.4	0
bin	0.43333333333333	0
bin	0.46666666666667	0
bin	0.5	0
statistic scenarioPRJP1.node[19].wlan.radio 	bitErrorRate:histogram
field count 0
field mean -nan
field stddev -nan
field sum 0
field sqrsum 0
field min -nan
field max -nan
attr source  bitErrorRate
attr title  "Bit error rate, histogram"
bin	-INF	0
bin	-0.5	0
bin	-0.46666666666667	0
bin	-0.43333333333333	0
bin	-0.4	0
bin	-0.36666666666667	0
bin	-0.33333333333333	0
bin	-0.3	0
bin	-0.26666666666667	0
bin	-0.23333333333333	0
bin	-0.2	0
bin	-0.16666666666667	0
bin	-0.13333333333333	0
bin	-0.1	0
bin	-0.066666666666667	0
bin	-0.033333333333333	0
bin	0	0
bin	0.033333333333333	0
bin	0.066666666666667	0
bin	0.1	0
bin	0.13333333333333	0
bin	0.16666666666667	0
bin	0.2	0
bin	0.23333333333333	0
bin	0.26666666666667	0
bin	0.3	0
bin	0.33333333333333	0
bin	0.36666666666667	0
bin	0.4	0
bin	0.43333333333333	0
bin	0.46666666666667	0
bin	0.5	0
statistic scenarioPRJP1.node[19].wlan.radio 	packetErrorRate:histogram
field count 481170
field mean 0.27771784126824
field stddev 0.43817770335987
field sum 133629.49368304
field sqrsum 129495.59803083
field min 0
field max 1
attr source  packetErrorRate
attr title  "Packet error rate, histogram"
bin	-INF	0
bin	-0.44615267069126	0
bin	-0.38666564793242	0
bin	-0.32717862517359	0
bin	-0.26769160241475	0
bin	-0.20820457965592	0
bin	-0.14871755689709	0
bin	-0.089230534138252	0
bin	-0.029743511379417	330205
bin	0.029743511379417	6523
bin	0.089230534138252	3172
bin	0.14871755689709	2278
bin	0.20820457965592	1792
bin	0.26769160241475	1486
bin	0.32717862517359	1314
bin	0.38666564793242	1130
bin	0.44615267069126	1014
bin	0.50563969345009	1007
bin	0.56512671620893	958
bin	0.62461373896776	989
bin	0.6841007617266	945
bin	0.74358778448543	1069
bin	0.80307480724426	1223
bin	0.8625618300031	1442
bin	0.92204885276193	2595
bin	0.98153587552077	122028
bin	1.0410228982796	0
bin	1.1005099210384	0
bin	1.1599969437973	0
bin	1.2194839665561	0
bin	1.2789709893149	0
bin	1.3384580120738	0
statistic scenarioPRJP1.node[19].wlan.radio 	minSNIR:histogram
field count 481170
field mean 9055.532315649
field stddev 124245.502549
field sum 4357250484.3208
field sqrsum 7.4672365649146e+15
field min 0.00010495066759719
field max 7890975.7556687
attr source  minSNIR
attr title  "Min SNIR, histogram"
bin	-INF	0
bin	-1.8635661753176	0
bin	-1.3922636605884	0
bin	-0.9209611458593	0
bin	-0.44965863113015	196
bin	0.021643883598999	4820
bin	0.49294639832815	20061
bin	0.96424891305729	29258
bin	1.4355514277864	24612
bin	1.9068539425156	19815
bin	2.3781564572447	17400
bin	2.8494589719739	15506
bin	3.320761486703	13261
bin	3.7920640014322	11689
bin	4.2633665161613	10439
bin	4.7346690308905	9027
bin	5.2059715456196	8090
bin	5.6772740603488	7269
bin	6.1485765750779	6406
bin	6.6198790898071	6007
bin	7.0911816045362	5372
bin	7.5624841192654	4989
bin	8.0337866339945	4569
bin	8.5050891487236	4111
bin	8.9763916634528	3776
bin	9.4476941781819	3461
bin	9.9189966929111	3184
bin	10.39029920764	3095
bin	10.861601722369	2853
bin	11.332904237099	2701
bin	11.804206751828	2533
bin	12.275509266557	236670
scalar scenarioPRJP1.node[19].lo0.lo 	droppedPkBitError:count 	0
attr interpolationmode  none
attr source  dropPkBitError
attr title  "packets dropped/bit error, count"
scalar scenarioPRJP1.node[19].lo0.lo 	droppedPkBitError:sum(packetBytes) 	0
attr interpolationmode  none
attr source  dropPkBitError
attr title  "packets dropped/bit error, sum(packetBytes)"
scalar scenarioPRJP1.node[19].lo0.lo 	rcvdPkFromHL:count 	341
attr interpolationmode  none
attr source  packetReceivedFromUpper
attr title  "packets received from higher layer, count"
scalar scenarioPRJP1.node[19].lo0.lo 	rcvdPkFromHL:sum(packetBytes) 	177320
attr interpolationmode  none
attr source  packetReceivedFromUpper
attr title  "packets received from higher layer, sum(packetBytes)"
scalar scenarioPRJP1.node[19].lo0.lo 	passedUpPk:count 	341
attr interpolationmode  none
attr source  packetSentToUpper
attr title  "packets passed to higher layer, count"
scalar scenarioPRJP1.node[19].lo0.lo 	passedUpPk:sum(packetBytes) 	177320
attr interpolationmode  none
attr source  packetSentToUpper
attr title  "packets passed to higher layer, sum(packetBytes)"
scalar scenarioPRJP1.node[37].app 	"Total sent" 	5024
scalar scenarioPRJP1.node[37].app 	"Total received" 	278
scalar scenarioPRJP1.node[37].app 	"Total deleted" 	5
scalar scenarioPRJP1.node[37].app 	dropPk:count 	5
attr interpolationmode  none
attr source  dropPk
attr title  "packets dropped, count"
scalar scenarioPRJP1.node[37].app 	dropPk:sum(packetBytes) 	2560
attr interpolationmode  none
attr source  dropPk
attr title  "packets dropped, sum(packetBytes)"
scalar scenarioPRJP1.node[37].app 	outOfOrderPk:count 	26
attr interpolationmode  none
attr source  outOfOrderPk
attr title  "packets received out of order, count"
scalar scenarioPRJP1.node[37].app 	outOfOrderPk:sum(packetBytes) 	13312
attr interpolationmode  none
attr source  outOfOrderPk
attr title  "packets received out of order, sum(packetBytes)"
scalar scenarioPRJP1.node[37].app 	rcvdPk:count 	278
attr interpolationmode  none
attr source  rcvdPk
attr title  "packets received, count"
scalar scenarioPRJP1.node[37].app 	rcvdPk:sum(packetBytes) 	142336
attr interpolationmode  none
attr source  rcvdPk
attr title  "packets received, sum(packetBytes)"
statistic scenarioPRJP1.node[37].app 	endToEndDelay:histogram
field count 278
field mean 0.69207289535335
field stddev 2.0924013023
field sum 192.39626490823
field sqrsum 1345.8979092433
field min 0.000910924842
field max 15.889182269427
attr interpolationmode  none
attr source  messageAge(rcvdPk)
attr title  "delay, histogram"
attr unit  s
bin	-INF	0
bin	-7.943185551396	0
bin	-6.8839692038039	0
bin	-5.8247528562117	0
bin	-4.7655365086196	0
bin	-3.7063201610275	0
bin	-2.6471038134353	0
bin	-1.5878874658432	0
bin	-0.52867111825107	225
bin	0.53054522934107	31
bin	1.5897615769332	6
bin	2.6489779245253	2
bin	3.7081942721175	0
bin	4.7674106197096	2
bin	5.8266269673017	2
bin	6.8858433148939	1
bin	7.945059662486	3
bin	9.0042760100781	2
bin	10.06349235767	0
bin	11.122708705262	1
bin	12.181925052855	2
bin	13.241141400447	0
bin	14.300357748039	0
bin	15.359574095631	1
bin	16.418790443223	0
bin	17.478006790815	0
bin	18.537223138407	0
bin	19.596439485999	0
bin	20.655655833592	0
bin	21.714872181184	0
bin	22.774088528776	0
bin	23.833304876368	0
scalar scenarioPRJP1.node[37].app 	sentPk:count 	5024
attr interpolationmode  none
attr source  sentPk
attr title  "packets sent, count"
scalar scenarioPRJP1.node[37].app 	sentPk:sum(packetBytes) 	2572288
attr interpolationmode  none
attr source  sentPk
attr title  "packets sent, sum(packetBytes)"
scalar scenarioPRJP1.node[37].udp 	droppedPkBadChecksum:count 	0
attr interpolationmode  none
attr title  "packets dropped (checksum error), count"
scalar scenarioPRJP1.node[37].udp 	droppedPkWrongPort:count 	0
attr interpolationmode  none
attr title  "packets dropped (wrong port), count"
scalar scenarioPRJP1.node[37].udp 	passedUpPk:count 	309
attr interpolationmode  none
attr title  "packets passed up, count"
scalar scenarioPRJP1.node[37].udp 	rcvdPk:count 	309
attr interpolationmode  none
attr source  rcvdPk
attr title  "packets received, count"
scalar scenarioPRJP1.node[37].udp 	rcvdPk:sum(packetBytes) 	160680
attr interpolationmode  none
attr source  rcvdPk
attr title  "packets received, sum(packetBytes)"
scalar scenarioPRJP1.node[37].udp 	sentPk:count 	5024
attr interpolationmode  none
attr source  sentPk
attr title  "packets sent, count"
scalar scenarioPRJP1.node[37].udp 	sentPk:sum(packetBytes) 	2612480
attr interpolationmode  none
attr source  sentPk
attr title  "packets sent, sum(packetBytes)"
scalar scenarioPRJP1.node[37].networkLayer.arp 	failedARPResolution:count 	245
attr title  "ARP failed resolutions, count"
scalar scenarioPRJP1.node[37].networkLayer.arp 	completedARPResolution:count 	3719
attr title  "ARP completed resolutions, count"
scalar scenarioPRJP1.node[37].networkLayer.arp 	initiatedARPResolution:count 	353
attr title  "ARP initiated resolutions, count"
scalar scenarioPRJP1.node[37].networkLayer.arp 	sentReply:count 	98
attr title  "ARP replies sent, count"
scalar scenarioPRJP1.node[37].networkLayer.arp 	sentReq:count 	882
attr title  "ARP request sent, count"
scalar scenarioPRJP1.node[37].mobility 	startTime 	2.5
scalar scenarioPRJP1.node[37].mobility 	totalTime 	1801.6
scalar scenarioPRJP1.node[37].mobility 	stopTime 	1804.2
scalar scenarioPRJP1.node[37].mobility 	minSpeed 	2.4755114718571e-13
scalar scenarioPRJP1.node[37].mobility 	maxSpeed 	21.044448455263
scalar scenarioPRJP1.node[37].mobility 	totalDistance 	21621.206823589
scalar scenarioPRJP1.node[37].mobility 	totalCO2Emission 	5930.3464436458
scalar scenarioPRJP1.node[37].wlan.mgmt 	dataQueueLen:max 	100
attr interpolationmode  sample-hold
attr title  "data queue length, max"
scalar scenarioPRJP1.node[37].wlan.mgmt 	dataQueueLen:timeavg 	0.42894626634657
attr interpolationmode  sample-hold
attr title  "data queue length, timeavg"
scalar scenarioPRJP1.node[37].wlan.mgmt 	dropPkByQueue:count 	178
attr interpolationmode  none
attr source  dropPkByQueue
attr title  "packets dropped by queue, count"
scalar scenarioPRJP1.node[37].wlan.mgmt 	dropPkByQueue:sum(packetBytes) 	39176
attr interpolationmode  none
attr source  dropPkByQueue
attr title  "packets dropped by queue, sum(packetBytes)"
scalar scenarioPRJP1.node[37].wlan.mac 	"number of received packets" 	11012
scalar scenarioPRJP1.node[37].wlan.mac 	"number of collisions" 	118493
scalar scenarioPRJP1.node[37].wlan.mac 	"number of internal collisions" 	0
scalar scenarioPRJP1.node[37].wlan.mac 	"number of retry for AC 0" 	38786
scalar scenarioPRJP1.node[37].wlan.mac 	"number of retry for AC 1" 	0
scalar scenarioPRJP1.node[37].wlan.mac 	"number of retry for AC 2" 	0
scalar scenarioPRJP1.node[37].wlan.mac 	"number of retry for AC 3" 	0
scalar scenarioPRJP1.node[37].wlan.mac 	"sent and received bits" 	30612896
scalar scenarioPRJP1.node[37].wlan.mac 	"sent packet within AC 0" 	10399
scalar scenarioPRJP1.node[37].wlan.mac 	"sent packet within AC 1" 	0
scalar scenarioPRJP1.node[37].wlan.mac 	"sent packet within AC 2" 	0
scalar scenarioPRJP1.node[37].wlan.mac 	"sent packet within AC 3" 	0
scalar scenarioPRJP1.node[37].wlan.mac 	"sent in TXOP " 	0
scalar scenarioPRJP1.node[37].wlan.mac 	"sentWithoutRetry AC 0" 	8288
scalar scenarioPRJP1.node[37].wlan.mac 	"sentWithoutRetry AC 1" 	0
scalar scenarioPRJP1.node[37].wlan.mac 	"sentWithoutRetry AC 2" 	0
scalar scenarioPRJP1.node[37].wlan.mac 	"sentWithoutRetry AC 3" 	0
scalar scenarioPRJP1.node[37].wlan.mac 	"numGivenUp AC 0" 	5537
scalar scenarioPRJP1.node[37].wlan.mac 	"numGivenUp AC 1" 	0
scalar scenarioPRJP1.node[37].wlan.mac 	"numGivenUp AC 2" 	0
scalar scenarioPRJP1.node[37].wlan.mac 	"numGivenUp AC 3" 	0
scalar scenarioPRJP1.node[37].wlan.mac 	"numDropped AC 0" 	328
scalar scenarioPRJP1.node[37].wlan.mac 	"numDropped AC 1" 	0
scalar scenarioPRJP1.node[37].wlan.mac 	"numDropped AC 2" 	0
scalar scenarioPRJP1.node[37].wlan.mac 	"numDropped AC 3" 	0
scalar scenarioPRJP1.node[37].wlan.mac 	rcvdPkFromLL:count 	399637
attr interpolationmode  none
attr source  packetReceivedFromLower
attr title  "packets received from lower layer, count"
scalar scenarioPRJP1.node[37].wlan.mac 	rcvdPkFromLL:sum(packetBytes) 	132590590
attr interpolationmode  none
attr source  packetReceivedFromLower
attr title  "packets received from lower layer, sum(packetBytes)"
scalar scenarioPRJP1.node[37].wlan.mac 	sentDownPk:count 	76325
attr interpolationmode  none
attr source  packetSentToLower
attr title  "packets sent to lower layer, count"
scalar scenarioPRJP1.node[37].wlan.mac 	sentDownPk:sum(packetBytes) 	24881864
attr interpolationmode  none
attr source  packetSentToLower
attr title  "packets sent to lower layer, sum(packetBytes)"
scalar scenarioPRJP1.node[37].wlan.mac 	rcvdPkFromHL:count 	26855
attr interpolationmode  none
attr source  packetReceivedFromUpper
attr title  "packets received from higher layer, count"
scalar scenarioPRJP1.node[37].wlan.mac 	rcvdPkFromHL:sum(packetBytes) 	6610232
attr interpolationmode  none
attr source  packetReceivedFromUpper
attr title  "packets received from higher layer, sum(packetBytes)"
scalar scenarioPRJP1.node[37].wlan.mac 	passedUpPk:count 	45231
attr interpolationmode  none
attr source  packetSentToUpper
attr title  "packets passed to higher layer, count"
scalar scenarioPRJP1.node[37].wlan.mac 	passedUpPk:sum(packetBytes) 	5306176
attr interpolationmode  none
attr source  packetSentToUpper
attr title  "packets passed to higher layer, sum(packetBytes)"
statistic scenarioPRJP1.node[37].wlan.radio 	radioChannel:histogram
field count 1
field mean 3
field stddev -nan
field sum 3
field sqrsum 9
field min 3
field max 3
attr interpolationmode  sample-hold
attr source  radioChannelChanged
attr title  "Radio channel, histogram"
bin	-INF	0
bin	2	0
bin	3	1
bin	4	0
scalar scenarioPRJP1.node[37].wlan.radio 	transmissionState:count 	305300
attr interpolationmode  sample-hold
attr source  transmissionStateChanged
attr title  "Radio transmission state, count"
scalar scenarioPRJP1.node[37].wlan.radio 	receptionState:count 	2027461
attr interpolationmode  sample-hold
attr source  receptionStateChanged
attr title  "Radio reception state, count"
scalar scenarioPRJP1.node[37].wlan.radio 	radioMode:count 	152652
attr interpolationmode  sample-hold
attr source  radioModeChanged
attr title  "Radio mode, count"
statistic scenarioPRJP1.node[37].wlan.radio 	symbolErrorRate:histogram
field count 0
field mean -nan
field stddev -nan
field sum 0
field sqrsum 0
field min -nan
field max -nan
attr source  symbolErrorRate
attr title  "Symbol error rate, histogram"
bin	-INF	0
bin	-0.5	0
bin	-0.46666666666667	0
bin	-0.43333333333333	0
bin	-0.4	0
bin	-0.36666666666667	0
bin	-0.33333333333333	0
bin	-0.3	0
bin	-0.26666666666667	0
bin	-0.23333333333333	0
bin	-0.2	0
bin	-0.16666666666667	0
bin	-0.13333333333333	0
bin	-0.1	0
bin	-0.066666666666667	0
bin	-0.033333333333333	0
bin	0	0
bin	0.033333333333333	0
bin	0.066666666666667	0
bin	0.1	0
bin	0.13333333333333	0
bin	0.16666666666667	0
bin	0.2	0
bin	0.23333333333333	0
bin	0.26666666666667	0
bin	0.3	0
bin	0.33333333333333	0
bin	0.36666666666667	0
bin	0.4	0
bin	0.43333333333333	0
bin	0.46666666666667	0
bin	0.5	0
statistic scenarioPRJP1.node[37].wlan.radio 	bitErrorRate:histogram
field count 0
field mean -nan
field stddev -nan
field sum 0
field sqrsum 0
field min -nan
field max -nan
attr source  bitErrorRate
attr title  "Bit error rate, histogram"
bin	-INF	0
bin	-0.5	0
bin	-0.46666666666667	0
bin	-0.43333333333333	0
bin	-0.4	0
bin	-0.36666666666667	0
bin	-0.33333333333333	0
bin	-0.3	0
bin	-0.26666666666667	0
bin	-0.23333333333333	0
bin	-0.2	0
bin	-0.16666666666667	0
bin	-0.13333333333333	0
bin	-0.1	0
bin	-0.066666666666667	0
bin	-0.033333333333333	0
bin	0	0
bin	0.033333333333333	0
bin	0.066666666666667	0
bin	0.1	0
bin	0.13333333333333	0
bin	0.16666666666667	0
bin	0.2	0
bin	0.23333333333333	0
bin	0.26666666666667	0
bin	0.3	0
bin	0.33333333333333	0
bin	0.36666666666667	0
bin	0.4	0
bin	0.43333333333333	0
bin	0.46666666666667	0
bin	0.5	0
statistic scenarioPRJP1.node[37].wlan.radio 	packetErrorRate:histogram
field count 399637
field mean 0.28253934852354
field stddev 0.44076092299116
field sum 112913.1776259
field sqrsum 109539.77779094
field min 0
field max 1
attr source  packetErrorRate
attr title  "Packet error rate, histogram"
bin	-INF	0
bin	-0.5	0
bin	-0.43333333333333	0
bin	-0.36666666666667	0
bin	-0.3	0
bin	-0.23333333333333	0
bin	-0.16666666666667	0
bin	-0.1	0
bin	-0.033333333333333	273052
bin	0.033333333333333	5434
bin	0.1	2698
bin	0.16666666666667	1870
bin	0.23333333333333	1475
bin	0.3	1201
bin	0.36666666666667	1067
bin	0.43333333333333	991
bin	0.5	925
bin	0.56666666666667	829
bin	0.63333333333333	886
bin	0.7	904
bin	0.76666666666667	1025
bin	0.83333333333333	1249
bin	0.9	1894
bin	0.96666666666667	104137
bin	1.0333333333333	0
bin	1.1	0
bin	1.1666666666667	0
bin	1.2333333333333	0
bin	1.3	0
bin	1.3666666666667	0
bin	1.4333333333333	0
bin	1.5	0
statistic scenarioPRJP1.node[37].wlan.radio 	minSNIR:histogram
field count 399637
field mean 8397.1617316573
field stddev 123931.30775548
field sum 3355816522.9543
field sqrsum 6.1661762861473e+15
field min 0.00010895572036591
field max 4021293.8323426
attr source  minSNIR
attr title  "Min SNIR, histogram"
bin	-INF	0
bin	-1506233.526411	0
bin	-1305402.3007672	0
bin	-1104571.0751235	0
bin	-903739.8494797	0
bin	-702908.62383592	0
bin	-502077.39819214	0
bin	-301246.17254837	0
bin	-100414.94690459	396383
bin	100416.27873919	1619
bin	301247.50438296	367
bin	502078.73002674	271
bin	702909.95567051	222
bin	903741.18131429	27
bin	1104572.4069581	33
bin	1305403.6326018	17
bin	1506234.8582456	29
bin	1707066.0838894	4
bin	1907897.3095332	21
bin	2108728.5351769	16
bin	2309559.7608207	23
bin	2510390.9864645	34
bin	2711222.2121083	76
bin	2912053.4377521	494
bin	3112884.6633958	0
bin	3313715.8890396	0
bin	3514547.1146834	0
bin	3715378.3403272	0
bin	3916209.5659709	1
bin	4117040.7916147	0
bin	4317872.0172585	0
bin	4518703.2429023	0
scalar scenarioPRJP1.node[37].lo0.lo 	droppedPkBitError:count 	0
attr interpolationmode  none
attr source  dropPkBitError
attr title  "packets dropped/bit error, count"
scalar scenarioPRJP1.node[37].lo0.lo 	droppedPkBitError:sum(packetBytes) 	0
attr interpolationmode  none
attr source  dropPkBitError
attr title  "packets dropped/bit error, sum(packetBytes)"
scalar scenarioPRJP1.node[37].lo0.lo 	rcvdPkFromHL:count 	309
attr interpolationmode  none
attr source  packetReceivedFromUpper
attr title  "packets received from higher layer, count"
scalar scenarioPRJP1.node[37].lo0.lo 	rcvdPkFromHL:sum(packetBytes) 	160680
attr interpolationmode  none
attr source  packetReceivedFromUpper
attr title  "packets received from higher layer, sum(packetBytes)"
scalar scenarioPRJP1.node[37].lo0.lo 	passedUpPk:count 	309
attr interpolationmode  none
attr source  packetSentToUpper
attr title  "packets passed to higher layer, count"
scalar scenarioPRJP1.node[37].lo0.lo 	passedUpPk:sum(packetBytes) 	160680
attr interpolationmode  none
attr source  packetSentToUpper
attr title  "packets passed to higher layer, sum(packetBytes)"
scalar scenarioPRJP1.node[0].app 	"Total sent" 	5032
scalar scenarioPRJP1.node[0].app 	"Total received" 	262
scalar scenarioPRJP1.node[0].app 	"Total deleted" 	1
scalar scenarioPRJP1.node[0].app 	dropPk:count 	1
attr interpolationmode  none
attr source  dropPk
attr title  "packets dropped, count"
scalar scenarioPRJP1.node[0].app 	dropPk:sum(packetBytes) 	512
attr interpolationmode  none
attr source  dropPk
attr title  "packets dropped, sum(packetBytes)"
scalar scenarioPRJP1.node[0].app 	outOfOrderPk:count 	15
attr interpolationmode  none
attr source  outOfOrderPk
attr title  "packets received out of order, count"
scalar scenarioPRJP1.node[0].app 	outOfOrderPk:sum(packetBytes) 	7680
attr interpolationmode  none
attr source  outOfOrderPk
attr title  "packets received out of order, sum(packetBytes)"
scalar scenarioPRJP1.node[0].app 	rcvdPk:count 	262
attr interpolationmode  none
attr source  rcvdPk
attr title  "packets received, count"
scalar scenarioPRJP1.node[0].app 	rcvdPk:sum(packetBytes) 	134144
attr interpolationmode  none
attr source  rcvdPk
attr title  "packets received, sum(packetBytes)"
statistic scenarioPRJP1.node[0].app 	endToEndDelay:histogram
field count 262
field mean 0.55735931517932
field stddev 1.8428719859832
field sum 146.02814057698
field sqrsum 967.79238233328
field min 0.000910035475
field max 19.979294588662
attr interpolationmode  none
attr source  messageAge(rcvdPk)
attr title  "delay, histogram"
attr unit  s
bin	-INF	0
bin	-9.9880837402595	0
bin	-8.6562002589741	0
bin	-7.3243167776887	0
bin	-5.9924332964033	0
bin	-4.6605498151179	0
bin	-3.3286663338325	0
bin	-1.9967828525471	0
bin	-0.6648993712617	212
bin	0.6669841100237	35
bin	1.9988675913091	6
bin	3.3307510725945	3
bin	4.6626345538799	1
bin	5.9945180351653	0
bin	7.3264015164507	1
bin	8.6582849977361	2
bin	9.9901684790215	0
bin	11.322051960307	0
bin	12.653935441592	1
bin	13.985818922878	0
bin	15.317702404163	0
bin	16.649585885449	0
bin	17.981469366734	0
bin	19.313352848019	1
bin	20.645236329305	0
bin	21.97711981059	0
bin	23.309003291875	0
bin	24.640886773161	0
bin	25.972770254446	0
bin	27.304653735732	0
bin	28.636537217017	0
bin	29.968420698303	0
scalar scenarioPRJP1.node[0].app 	sentPk:count 	5032
attr interpolationmode  none
attr source  sentPk
attr title  "packets sent, count"
scalar scenarioPRJP1.node[0].app 	sentPk:sum(packetBytes) 	2576384
attr interpolationmode  none
attr source  sentPk
attr title  "packets sent, sum(packetBytes)"
scalar scenarioPRJP1.node[0].udp 	droppedPkBadChecksum:count 	0
attr interpolationmode  none
attr title  "packets dropped (checksum error), count"
scalar scenarioPRJP1.node[0].udp 	droppedPkWrongPort:count 	0
attr interpolationmode  none
attr title  "packets dropped (wrong port), count"
scalar scenarioPRJP1.node[0].udp 	passedUpPk:count 	278
attr interpolationmode  none
attr title  "packets passed up, count"
scalar scenarioPRJP1.node[0].udp 	rcvdPk:count 	278
attr interpolationmode  none
attr source  rcvdPk
attr title  "packets received, count"
scalar scenarioPRJP1.node[0].udp 	rcvdPk:sum(packetBytes) 	144560
attr interpolationmode  none
attr source  rcvdPk
attr title  "packets received, sum(packetBytes)"
scalar scenarioPRJP1.node[0].udp 	sentPk:count 	5032
attr interpolationmode  none
attr source  sentPk
attr title  "packets sent, count"
scalar scenarioPRJP1.node[0].udp 	sentPk:sum(packetBytes) 	2616640
attr interpolationmode  none
attr source  sentPk
attr title  "packets sent, sum(packetBytes)"
scalar scenarioPRJP1.node[0].networkLayer.arp 	failedARPResolution:count 	273
attr title  "ARP failed resolutions, count"
scalar scenarioPRJP1.node[0].networkLayer.arp 	completedARPResolution:count 	4538
attr title  "ARP completed resolutions, count"
scalar scenarioPRJP1.node[0].networkLayer.arp 	initiatedARPResolution:count 	383
attr title  "ARP initiated resolutions, count"
scalar scenarioPRJP1.node[0].networkLayer.arp 	sentReply:count 	94
attr title  "ARP replies sent, count"
scalar scenarioPRJP1.node[0].networkLayer.arp 	sentReq:count 	977
attr title  "ARP request sent, count"
scalar scenarioPRJP1.node[0].mobility 	startTime 	0.1
scalar scenarioPRJP1.node[0].mobility 	totalTime 	1829.5
scalar scenarioPRJP1.node[0].mobility 	stopTime 	1829.7
scalar scenarioPRJP1.node[0].mobility 	minSpeed 	2.475599648851e-13
scalar scenarioPRJP1.node[0].mobility 	maxSpeed 	19.973311288818
scalar scenarioPRJP1.node[0].mobility 	totalDistance 	18282.38688583
scalar scenarioPRJP1.node[0].mobility 	totalCO2Emission 	5280.2512690402
scalar scenarioPRJP1.node[0].wlan.mgmt 	dataQueueLen:max 	16
attr interpolationmode  sample-hold
attr title  "data queue length, max"
scalar scenarioPRJP1.node[0].wlan.mgmt 	dataQueueLen:timeavg 	0.0011752075757062
attr interpolationmode  sample-hold
attr title  "data queue length, timeavg"
scalar scenarioPRJP1.node[0].wlan.mgmt 	dropPkByQueue:count 	0
attr interpolationmode  none
attr source  dropPkByQueue
attr title  "packets dropped by queue, count"
scalar scenarioPRJP1.node[0].wlan.mgmt 	dropPkByQueue:sum(packetBytes) 	0
attr interpolationmode  none
attr source  dropPkByQueue
attr title  "packets dropped by queue, sum(packetBytes)"
scalar scenarioPRJP1.node[0].wlan.mac 	"number of received packets" 	13458
scalar scenarioPRJP1.node[0].wlan.mac 	"number of collisions" 	146730
scalar scenarioPRJP1.node[0].wlan.mac 	"number of internal collisions" 	0
scalar scenarioPRJP1.node[0].wlan.mac 	"number of retry for AC 0" 	47046
scalar scenarioPRJP1.node[0].wlan.mac 	"number of retry for AC 1" 	0
scalar scenarioPRJP1.node[0].wlan.mac 	"number of retry for AC 2" 	0
scalar scenarioPRJP1.node[0].wlan.mac 	"number of retry for AC 3" 	0
scalar scenarioPRJP1.node[0].wlan.mac 	"sent and received bits" 	33450880
scalar scenarioPRJP1.node[0].wlan.mac 	"sent packet within AC 0" 	13299
scalar scenarioPRJP1.node[0].wlan.mac 	"sent packet within AC 1" 	0
scalar scenarioPRJP1.node[0].wlan.mac 	"sent packet within AC 2" 	0
scalar scenarioPRJP1.node[0].wlan.mac 	"sent packet within AC 3" 	0
scalar scenarioPRJP1.node[0].wlan.mac 	"sent in TXOP " 	0
scalar scenarioPRJP1.node[0].wlan.mac 	"sentWithoutRetry AC 0" 	10762
scalar scenarioPRJP1.node[0].wlan.mac 	"sentWithoutRetry AC 1" 	0
scalar scenarioPRJP1.node[0].wlan.mac 	"sentWithoutRetry AC 2" 	0
scalar scenarioPRJP1.node[0].wlan.mac 	"sentWithoutRetry AC 3" 	0
scalar scenarioPRJP1.node[0].wlan.mac 	"numGivenUp AC 0" 	6759
scalar scenarioPRJP1.node[0].wlan.mac 	"numGivenUp AC 1" 	0
scalar scenarioPRJP1.node[0].wlan.mac 	"numGivenUp AC 2" 	0
scalar scenarioPRJP1.node[0].wlan.mac 	"numGivenUp AC 3" 	0
scalar scenarioPRJP1.node[0].wlan.mac 	"numDropped AC 0" 	51
scalar scenarioPRJP1.node[0].wlan.mac 	"numDropped AC 1" 	0
scalar scenarioPRJP1.node[0].wlan.mac 	"numDropped AC 2" 	0
scalar scenarioPRJP1.node[0].wlan.mac 	"numDropped AC 3" 	0
scalar scenarioPRJP1.node[0].wlan.mac 	rcvdPkFromLL:count 	469744
attr interpolationmode  none
attr source  packetReceivedFromLower
attr title  "packets received from lower layer, count"
scalar scenarioPRJP1.node[0].wlan.mac 	rcvdPkFromLL:sum(packetBytes) 	151921900
attr interpolationmode  none
attr source  packetReceivedFromLower
attr title  "packets received from lower layer, sum(packetBytes)"
scalar scenarioPRJP1.node[0].wlan.mac 	sentDownPk:count 	89035
attr interpolationmode  none
attr source  packetSentToLower
attr title  "packets sent to lower layer, count"
scalar scenarioPRJP1.node[0].wlan.mac 	sentDownPk:sum(packetBytes) 	29436900
attr interpolationmode  none
attr source  packetSentToLower
attr title  "packets sent to lower layer, sum(packetBytes)"
scalar scenarioPRJP1.node[0].wlan.mac 	rcvdPkFromHL:count 	28582
attr interpolationmode  none
attr source  packetReceivedFromUpper
attr title  "packets received from higher layer, count"
scalar scenarioPRJP1.node[0].wlan.mac 	rcvdPkFromHL:sum(packetBytes) 	7469332
attr interpolationmode  none
attr source  packetReceivedFromUpper
attr title  "packets received from higher layer, sum(packetBytes)"
scalar scenarioPRJP1.node[0].wlan.mac 	passedUpPk:count 	43700
attr interpolationmode  none
attr source  packetSentToUpper
attr title  "packets passed to higher layer, count"
scalar scenarioPRJP1.node[0].wlan.mac 	passedUpPk:sum(packetBytes) 	5736920
attr interpolationmode  none
attr source  packetSentToUpper
attr title  "packets passed to higher layer, sum(packetBytes)"
statistic scenarioPRJP1.node[0].wlan.radio 	radioChannel:histogram
field count 1
field mean 3
field stddev -nan
field sum 3
field sqrsum 9
field min 3
field max 3
attr interpolationmode  sample-hold
attr source  radioChannelChanged
attr title  "Radio channel, histogram"
bin	-INF	0
bin	2	0
bin	3	1
bin	4	0
scalar scenarioPRJP1.node[0].wlan.radio 	transmissionState:count 	356140
attr interpolationmode  sample-hold
attr source  transmissionStateChanged
attr title  "Radio transmission state, count"
scalar scenarioPRJP1.node[0].wlan.radio 	receptionState:count 	2334152
attr interpolationmode  sample-hold
attr source  receptionStateChanged
attr title  "Radio reception state, count"
scalar scenarioPRJP1.node[0].wlan.radio 	radioMode:count 	178072
attr interpolationmode  sample-hold
attr source  radioModeChanged
attr title  "Radio mode, count"
statistic scenarioPRJP1.node[0].wlan.radio 	symbolErrorRate:histogram
field count 0
field mean -nan
field stddev -nan
field sum 0
field sqrsum 0
field min -nan
field max -nan
attr source  symbolErrorRate
attr title  "Symbol error rate, histogram"
bin	-INF	0
bin	-0.5	0
bin	-0.46666666666667	0
bin	-0.43333333333333	0
bin	-0.4	0
bin	-0.36666666666667	0
bin	-0.33333333333333	0
bin	-0.3	0
bin	-0.26666666666667	0
bin	-0.23333333333333	0
bin	-0.2	0
bin	-0.16666666666667	0
bin	-0.13333333333333	0
bin	-0.1	0
bin	-0.066666666666667	0
bin	-0.033333333333333	0
bin	0	0
bin	0.033333333333333	0
bin	0.066666666666667	0
bin	0.1	0
bin	0.13333333333333	0
bin	0.16666666666667	0
bin	0.2	0
bin	0.23333333333333	0
bin	0.26666666666667	0
bin	0.3	0
bin	0.33333333333333	0
bin	0.36666666666667	0
bin	0.4	0
bin	0.43333333333333	0
bin	0.46666666666667	0
bin	0.5	0
statistic scenarioPRJP1.node[0].wlan.radio 	bitErrorRate:histogram
field count 0
field mean -nan
field stddev -nan
field sum 0
field sqrsum 0
field min -nan
field max -nan
attr source  bitErrorRate
attr title  "Bit error rate, histogram"
bin	-INF	0
bin	-0.5	0
bin	-0.46666666666667	0
bin	-0.43333333333333	0
bin	-0.4	0
bin	-0.36666666666667	0
bin	-0.33333333333333	0
bin	-0.3	0
bin	-0.26666666666667	0
bin	-0.23333333333333	0
bin	-0.2	0
bin	-0.16666666666667	0
bin	-0.13333333333333	0
bin	-0.1	0
bin	-0.066666666666667	0
bin	-0.033333333333333	0
bin	0	0
bin	0.033333333333333	0
bin	0.066666666666667	0
bin	0.1	0
bin	0.13333333333333	0
bin	0.16666666666667	0
bin	0.2	0
bin	0.23333333333333	0
bin	0.26666666666667	0
bin	0.3	0
bin	0.33333333333333	0
bin	0.36666666666667	0
bin	0.4	0
bin	0.43333333333333	0
bin	0.46666666666667	0
bin	0.5	0
statistic scenarioPRJP1.node[0].wlan.radio 	packetErrorRate:histogram
field count 469744
field mean 0.29895997662426
field stddev 0.44847916245605
field sum 140434.65525939
field sqrsum 136465.4227328
field min 0
field max 1
attr source  packetErrorRate
attr title  "Packet error rate, histogram"
bin	-INF	0
bin	-0.5	0
bin	-0.43333333333333	0
bin	-0.36666666666667	0
bin	-0.3	0
bin	-0.23333333333333	0
bin	-0.16666666666667	0
bin	-0.1	0
bin	-0.033333333333333	313299
bin	0.033333333333333	6420
bin	0.1	3070
bin	0.16666666666667	2161
bin	0.23333333333333	1699
bin	0.3	1452
bin	0.36666666666667	1213
bin	0.43333333333333	1177
bin	0.5	1082
bin	0.56666666666667	1051
bin	0.63333333333333	1077
bin	0.7	1082
bin	0.76666666666667	1214
bin	0.83333333333333	1409
bin	0.9	2209
bin	0.96666666666667	130129
bin	1.0333333333333	0
bin	1.1	0
bin	1.1666666666667	0
bin	1.2333333333333	0
bin	1.3	0
bin	1.3666666666667	0
bin	1.4333333333333	0
bin	1.5	0
statistic scenarioPRJP1.node[0].wlan.radio 	minSNIR:histogram
field count 469744
field mean 10279.617371455
field stddev 271918.27575005
field sum 4828788582.537
field sqrsum 3.4782223517818e+16
field min 0.00013258872829667
field max 61136481.860967
attr source  minSNIR
attr title  "Min SNIR, histogram"
bin	-INF	0
bin	-446.23636397584	0
bin	-386.49248944364	0
bin	-326.74861491144	0
bin	-267.00474037924	0
bin	-207.26086584704	0
bin	-147.51699131484	0
bin	-87.773116782641	0
bin	-28.02924225044	298566
bin	31.714632281761	35204
bin	91.458506813961	12994
bin	151.20238134616	9150
bin	210.94625587836	8062
bin	270.69013041056	7907
bin	330.43400494276	8786
bin	390.17787947496	6805
bin	449.92175400716	5299
bin	509.66562853937	3925
bin	569.40950307157	3280
bin	629.15337760377	3024
bin	688.89725213597	2477
bin	748.64112666817	2133
bin	808.38500120037	1912
bin	868.12887573257	1869
bin	927.87275026477	1576
bin	987.61662479697	1414
bin	1047.3604993292	1312
bin	1107.1043738614	1213
bin	1166.8482483936	1130
bin	1226.5921229258	1009
bin	1286.335997458	1004
bin	1346.0798719902	49693
scalar scenarioPRJP1.node[0].lo0.lo 	droppedPkBitError:count 	0
attr interpolationmode  none
attr source  dropPkBitError
attr title  "packets dropped/bit error, count"
scalar scenarioPRJP1.node[0].lo0.lo 	droppedPkBitError:sum(packetBytes) 	0
attr interpolationmode  none
attr source  dropPkBitError
attr title  "packets dropped/bit error, sum(packetBytes)"
scalar scenarioPRJP1.node[0].lo0.lo 	rcvdPkFromHL:count 	278
attr interpolationmode  none
attr source  packetReceivedFromUpper
attr title  "packets received from higher layer, count"
scalar scenarioPRJP1.node[0].lo0.lo 	rcvdPkFromHL:sum(packetBytes) 	144560
attr interpolationmode  none
attr source  packetReceivedFromUpper
attr title  "packets received from higher layer, sum(packetBytes)"
scalar scenarioPRJP1.node[0].lo0.lo 	passedUpPk:count 	278
attr interpolationmode  none
attr source  packetSentToUpper
attr title  "packets passed to higher layer, count"
scalar scenarioPRJP1.node[0].lo0.lo 	passedUpPk:sum(packetBytes) 	144560
attr interpolationmode  none
attr source  packetSentToUpper
attr title  "packets passed to higher layer, sum(packetBytes)"
scalar scenarioPRJP1.node[3].app 	"Total sent" 	5003
scalar scenarioPRJP1.node[3].app 	"Total received" 	266
scalar scenarioPRJP1.node[3].app 	"Total deleted" 	0
scalar scenarioPRJP1.node[3].app 	dropPk:count 	0
attr interpolationmode  none
attr source  dropPk
attr title  "packets dropped, count"
scalar scenarioPRJP1.node[3].app 	dropPk:sum(packetBytes) 	0
attr interpolationmode  none
attr source  dropPk
attr title  "packets dropped, sum(packetBytes)"
scalar scenarioPRJP1.node[3].app 	outOfOrderPk:count 	6
attr interpolationmode  none
attr source  outOfOrderPk
attr title  "packets received out of order, count"
scalar scenarioPRJP1.node[3].app 	outOfOrderPk:sum(packetBytes) 	3072
attr interpolationmode  none
attr source  outOfOrderPk
attr title  "packets received out of order, sum(packetBytes)"
scalar scenarioPRJP1.node[3].app 	rcvdPk:count 	266
attr interpolationmode  none
attr source  rcvdPk
attr title  "packets received, count"
scalar scenarioPRJP1.node[3].app 	rcvdPk:sum(packetBytes) 	136192
attr interpolationmode  none
attr source  rcvdPk
attr title  "packets received, sum(packetBytes)"
statistic scenarioPRJP1.node[3].app 	endToEndDelay:histogram
field count 266
field mean 0.52731396576309
field stddev 1.5397938306469
field sum 140.26551489298
field sqrsum 702.26970075602
field min 0.000965106552
field max 15.608719679293
attr interpolationmode  none
attr source  messageAge(rcvdPk)
attr title  "delay, histogram"
attr unit  s
bin	-INF	0
bin	-6.793835005296	0
bin	-5.8877497819815	0
bin	-4.9816645586669	0
bin	-4.0755793353524	0
bin	-3.1694941120379	0
bin	-2.2634088887233	0
bin	-1.3573236654088	0
bin	-0.45123844209427	209
bin	0.45484678122027	28
bin	1.3609320045348	16
bin	2.2670172278493	6
bin	3.1731024511639	3
bin	4.0791876744784	0
bin	4.9852728977929	1
bin	5.8913581211075	0
bin	6.797443344422	0
bin	7.7035285677365	0
bin	8.6096137910511	1
bin	9.5156990143656	0
bin	10.42178423768	0
bin	11.327869460995	0
bin	12.233954684309	0
bin	13.140039907624	1
bin	14.046125130938	0
bin	14.952210354253	1
bin	15.858295577567	0
bin	16.764380800882	0
bin	17.670466024196	0
bin	18.576551247511	0
bin	19.482636470825	0
bin	20.38872169414	0
scalar scenarioPRJP1.node[3].app 	sentPk:count 	5003
attr interpolationmode  none
attr source  sentPk
attr title  "packets sent, count"
scalar scenarioPRJP1.node[3].app 	sentPk:sum(packetBytes) 	2561536
attr interpolationmode  none
attr source  sentPk
attr title  "packets sent, sum(packetBytes)"
scalar scenarioPRJP1.node[3].udp 	droppedPkBadChecksum:count 	0
attr interpolationmode  none
attr title  "packets dropped (checksum error), count"
scalar scenarioPRJP1.node[3].udp 	droppedPkWrongPort:count 	0
attr interpolationmode  none
attr title  "packets dropped (wrong port), count"
scalar scenarioPRJP1.node[3].udp 	passedUpPk:count 	272
attr interpolationmode  none
attr title  "packets passed up, count"
scalar scenarioPRJP1.node[3].udp 	rcvdPk:count 	272
attr interpolationmode  none
attr source  rcvdPk
attr title  "packets received, count"
scalar scenarioPRJP1.node[3].udp 	rcvdPk:sum(packetBytes) 	141440
attr interpolationmode  none
attr source  rcvdPk
attr title  "packets received, sum(packetBytes)"
scalar scenarioPRJP1.node[3].udp 	sentPk:count 	5003
attr interpolationmode  none
attr source  sentPk
attr title  "packets sent, count"
scalar scenarioPRJP1.node[3].udp 	sentPk:sum(packetBytes) 	2601560
attr interpolationmode  none
attr source  sentPk
attr title  "packets sent, sum(packetBytes)"
scalar scenarioPRJP1.node[3].networkLayer.arp 	failedARPResolution:count 	281
attr title  "ARP failed resolutions, count"
scalar scenarioPRJP1.node[3].networkLayer.arp 	completedARPResolution:count 	5415
attr title  "ARP completed resolutions, count"
scalar scenarioPRJP1.node[3].networkLayer.arp 	initiatedARPResolution:count 	390
attr title  "ARP initiated resolutions, count"
scalar scenarioPRJP1.node[3].networkLayer.arp 	sentReply:count 	78
attr title  "ARP replies sent, count"
scalar scenarioPRJP1.node[3].networkLayer.arp 	sentReq:count 	1003
attr title  "ARP request sent, count"
scalar scenarioPRJP1.node[3].mobility 	startTime 	0.1
scalar scenarioPRJP1.node[3].mobility 	totalTime 	1830.6
scalar scenarioPRJP1.node[3].mobility 	stopTime 	1830.8
scalar scenarioPRJP1.node[3].mobility 	minSpeed 	2.475808297198e-13
scalar scenarioPRJP1.node[3].mobility 	maxSpeed 	18.196085153138
scalar scenarioPRJP1.node[3].mobility 	totalDistance 	18979.725320603
scalar scenarioPRJP1.node[3].mobility 	totalCO2Emission 	5033.3879610991
scalar scenarioPRJP1.node[3].wlan.mgmt 	dataQueueLen:max 	100
attr interpolationmode  sample-hold
attr title  "data queue length, max"
scalar scenarioPRJP1.node[3].wlan.mgmt 	dataQueueLen:timeavg 	0.96148332134149
attr interpolationmode  sample-hold
attr title  "data queue length, timeavg"
scalar scenarioPRJP1.node[3].wlan.mgmt 	dropPkByQueue:count 	439
attr interpolationmode  none
attr source  dropPkByQueue
attr title  "packets dropped by queue, count"
scalar scenarioPRJP1.node[3].wlan.mgmt 	dropPkByQueue:sum(packetBytes) 	92804
attr interpolationmode  none
attr source  dropPkByQueue
attr title  "packets dropped by queue, sum(packetBytes)"
scalar scenarioPRJP1.node[3].wlan.mac 	"number of received packets" 	12020
scalar scenarioPRJP1.node[3].wlan.mac 	"number of collisions" 	160649
scalar scenarioPRJP1.node[3].wlan.mac 	"number of internal collisions" 	0
scalar scenarioPRJP1.node[3].wlan.mac 	"number of retry for AC 0" 	43204
scalar scenarioPRJP1.node[3].wlan.mac 	"number of retry for AC 1" 	0
scalar scenarioPRJP1.node[3].wlan.mac 	"number of retry for AC 2" 	0
scalar scenarioPRJP1.node[3].wlan.mac 	"number of retry for AC 3" 	0
scalar scenarioPRJP1.node[3].wlan.mac 	"sent and received bits" 	30563072
scalar scenarioPRJP1.node[3].wlan.mac 	"sent packet within AC 0" 	12048
scalar scenarioPRJP1.node[3].wlan.mac 	"sent packet within AC 1" 	0
scalar scenarioPRJP1.node[3].wlan.mac 	"sent packet within AC 2" 	0
scalar scenarioPRJP1.node[3].wlan.mac 	"sent packet within AC 3" 	0
scalar scenarioPRJP1.node[3].wlan.mac 	"sent in TXOP " 	0
scalar scenarioPRJP1.node[3].wlan.mac 	"sentWithoutRetry AC 0" 	9731
scalar scenarioPRJP1.node[3].wlan.mac 	"sentWithoutRetry AC 1" 	0
scalar scenarioPRJP1.node[3].wlan.mac 	"sentWithoutRetry AC 2" 	0
scalar scenarioPRJP1.node[3].wlan.mac 	"sentWithoutRetry AC 3" 	0
scalar scenarioPRJP1.node[3].wlan.mac 	"numGivenUp AC 0" 	6248
scalar scenarioPRJP1.node[3].wlan.mac 	"numGivenUp AC 1" 	0
scalar scenarioPRJP1.node[3].wlan.mac 	"numGivenUp AC 2" 	0
scalar scenarioPRJP1.node[3].wlan.mac 	"numGivenUp AC 3" 	0
scalar scenarioPRJP1.node[3].wlan.mac 	"numDropped AC 0" 	707
scalar scenarioPRJP1.node[3].wlan.mac 	"numDropped AC 1" 	0
scalar scenarioPRJP1.node[3].wlan.mac 	"numDropped AC 2" 	0
scalar scenarioPRJP1.node[3].wlan.mac 	"numDropped AC 3" 	0
scalar scenarioPRJP1.node[3].wlan.mac 	rcvdPkFromLL:count 	504804
attr interpolationmode  none
attr source  packetReceivedFromLower
attr title  "packets received from lower layer, count"
scalar scenarioPRJP1.node[3].wlan.mac 	rcvdPkFromLL:sum(packetBytes) 	157310962
attr interpolationmode  none
attr source  packetReceivedFromLower
attr title  "packets received from lower layer, sum(packetBytes)"
scalar scenarioPRJP1.node[3].wlan.mac 	sentDownPk:count 	81848
attr interpolationmode  none
attr source  packetSentToLower
attr title  "packets sent to lower layer, count"
scalar scenarioPRJP1.node[3].wlan.mac 	sentDownPk:sum(packetBytes) 	27936024
attr interpolationmode  none
attr source  packetSentToLower
attr title  "packets sent to lower layer, sum(packetBytes)"
scalar scenarioPRJP1.node[3].wlan.mac 	rcvdPkFromHL:count 	27331
attr interpolationmode  none
attr source  packetReceivedFromUpper
attr title  "packets received from higher layer, count"
scalar scenarioPRJP1.node[3].wlan.mac 	rcvdPkFromHL:sum(packetBytes) 	7111484
attr interpolationmode  none
attr source  packetReceivedFromUpper
attr title  "packets received from higher layer, sum(packetBytes)"
scalar scenarioPRJP1.node[3].wlan.mac 	passedUpPk:count 	50863
attr interpolationmode  none
attr source  packetSentToUpper
attr title  "packets passed to higher layer, count"
scalar scenarioPRJP1.node[3].wlan.mac 	passedUpPk:sum(packetBytes) 	6025524
attr interpolationmode  none
attr source  packetSentToUpper
attr title  "packets passed to higher layer, sum(packetBytes)"
statistic scenarioPRJP1.node[3].wlan.radio 	radioChannel:histogram
field count 1
field mean 3
field stddev -nan
field sum 3
field sqrsum 9
field min 3
field max 3
attr interpolationmode  sample-hold
attr source  radioChannelChanged
attr title  "Radio channel, histogram"
bin	-INF	0
bin	2	0
bin	3	1
bin	4	0
scalar scenarioPRJP1.node[3].wlan.radio 	transmissionState:count 	327392
attr interpolationmode  sample-hold
attr source  transmissionStateChanged
attr title  "Radio transmission state, count"
scalar scenarioPRJP1.node[3].wlan.radio 	receptionState:count 	2397299
attr interpolationmode  sample-hold
attr source  receptionStateChanged
attr title  "Radio reception state, count"
scalar scenarioPRJP1.node[3].wlan.radio 	radioMode:count 	163698
attr interpolationmode  sample-hold
attr source  radioModeChanged
attr title  "Radio mode, count"
[...]
field max 3
attr interpolationmode  sample-hold
attr source  radioChannelChanged
attr title  "Radio channel, histogram"
bin	-INF	0
bin	2	0
bin	3	1
bin	4	0
scalar scenarioPRJP1.node[59].wlan.radio 	transmissionState:count 	380536
attr interpolationmode  sample-hold
attr source  transmissionStateChanged
attr title  "Radio transmission state, count"
scalar scenarioPRJP1.node[59].wlan.radio 	receptionState:count 	2232943
attr interpolationmode  sample-hold
attr source  receptionStateChanged
attr title  "Radio reception state, count"
scalar scenarioPRJP1.node[59].wlan.radio 	radioMode:count 	190270
attr interpolationmode  sample-hold
attr source  radioModeChanged
attr title  "Radio mode, count"
statistic scenarioPRJP1.node[59].wlan.radio 	symbolErrorRate:histogram
field count 0
field mean -nan
field stddev -nan
field sum 0
field sqrsum 0
field min -nan
field max -nan
attr source  symbolErrorRate
attr title  "Symbol error rate, histogram"
bin	-INF	0
bin	-0.5	0
bin	-0.46666666666667	0
bin	-0.43333333333333	0
bin	-0.4	0
bin	-0.36666666666667	0
bin	-0.33333333333333	0
bin	-0.3	0
bin	-0.26666666666667	0
bin	-0.23333333333333	0
bin	-0.2	0
bin	-0.16666666666667	0
bin	-0.13333333333333	0
bin	-0.1	0
bin	-0.066666666666667	0
bin	-0.033333333333333	0
bin	0	0
bin	0.033333333333333	0
bin	0.066666666666667	0
bin	0.1	0
bin	0.13333333333333	0
bin	0.16666666666667	0
bin	0.2	0
bin	0.23333333333333	0
bin	0.26666666666667	0
bin	0.3	0
bin	0.33333333333333	0
bin	0.36666666666667	0
bin	0.4	0
bin	0.43333333333333	0
bin	0.46666666666667	0
bin	0.5	0
statistic scenarioPRJP1.node[59].wlan.radio 	bitErrorRate:histogram
field count 0
field mean -nan
field stddev -nan
field sum 0
field sqrsum 0
field min -nan
field max -nan
attr source  bitErrorRate
attr title  "Bit error rate, histogram"
bin	-INF	0
bin	-0.5	0
bin	-0.46666666666667	0
bin	-0.43333333333333	0
bin	-0.4	0
bin	-0.36666666666667	0
bin	-0.33333333333333	0
bin	-0.3	0
bin	-0.26666666666667	0
bin	-0.23333333333333	0
bin	-0.2	0
bin	-0.16666666666667	0
bin	-0.13333333333333	0
bin	-0.1	0
bin	-0.066666666666667	0
bin	-0.033333333333333	0
bin	0	0
bin	0.033333333333333	0
bin	0.066666666666667	0
bin	0.1	0
bin	0.13333333333333	0
bin	0.16666666666667	0
bin	0.2	0
bin	0.23333333333333	0
bin	0.26666666666667	0
bin	0.3	0
bin	0.33333333333333	0
bin	0.36666666666667	0
bin	0.4	0
bin	0.43333333333333	0
bin	0.46666666666667	0
bin	0.5	0
statistic scenarioPRJP1.node[59].wlan.radio 	packetErrorRate:histogram
field count 488250
field mean 0.25186490344177
field stddev 0.42538487148778
field sum 122973.03910544
field sqrsum 119322.36671882
field min 0
field max 1
attr source  packetErrorRate
attr title  "Packet error rate, histogram"
bin	-INF	0
bin	-0.0023903678818655	0
bin	-0.0020716521642834	0
bin	-0.0017529364467013	0
bin	-0.0014342207291193	0
bin	-0.0011155050115372	0
bin	-0.00079678929395516	0
bin	-0.00047807357637309	0
bin	-0.00015935785879103	324604
bin	0.00015935785879103	4799
bin	0.00047807357637309	2339
bin	0.00079678929395516	1573
bin	0.0011155050115372	1188
bin	0.0014342207291193	989
bin	0.0017529364467013	777
bin	0.0020716521642834	682
bin	0.0023903678818655	601
bin	0.0027090835994475	568
bin	0.0030277993170296	481
bin	0.0033465150346117	453
bin	0.0036652307521937	367
bin	0.0039839464697758	396
bin	0.0043026621873579	361
bin	0.0046213779049399	319
bin	0.004940093622522	313
bin	0.005258809340104	264
bin	0.0055775250576861	268
bin	0.0058962407752682	252
bin	0.0062149564928502	246
bin	0.0065336722104323	246
bin	0.0068523879280144	240
bin	0.0071711036455964	145924
statistic scenarioPRJP1.node[59].wlan.radio 	minSNIR:histogram
field count 488250
field mean 10651.685714025
field stddev 131432.068199
field sum 5200685549.8726
field sqrsum 8.489599003644e+15
field min 0.00012934996420151
field max 8422387.1263585
attr source  minSNIR
attr title  "Min SNIR, histogram"
bin	-INF	0
bin	-1536.9945433506	0
bin	-1331.7269134388	0
bin	-1126.459283527	0
bin	-921.1916536152	0
bin	-715.92402370339	0
bin	-510.65639379157	0
bin	-305.38876387976	0
bin	-100.12113396794	319358
bin	105.14649594387	38698
bin	310.41412585569	26823
bin	515.6817557675	13365
bin	720.94938567932	8156
bin	926.21701559113	5838
bin	1131.4846455029	4515
bin	1336.7522754148	3593
bin	1542.0199053266	3414
bin	1747.2875352384	3621
bin	1952.5551651502	3069
bin	2157.822795062	2975
bin	2363.0904249738	2585
bin	2568.3580548857	2088
bin	2773.6256847975	1858
bin	2978.8933147093	1620
bin	3184.1609446211	1251
bin	3389.4285745329	1215
bin	3594.6962044447	1117
bin	3799.9638343565	1030
bin	4005.2314642684	949
bin	4210.4990941802	849
bin	4415.766724092	786
bin	4621.0343540038	39477
scalar scenarioPRJP1.node[59].lo0.lo 	droppedPkBitError:count 	0
attr interpolationmode  none
attr source  dropPkBitError
attr title  "packets dropped/bit error, count"
scalar scenarioPRJP1.node[59].lo0.lo 	droppedPkBitError:sum(packetBytes) 	0
attr interpolationmode  none
attr source  dropPkBitError
attr title  "packets dropped/bit error, sum(packetBytes)"
scalar scenarioPRJP1.node[59].lo0.lo 	rcvdPkFromHL:count 	311
attr interpolationmode  none
attr source  packetReceivedFromUpper
attr title  "packets received from higher layer, count"
scalar scenarioPRJP1.node[59].lo0.lo 	rcvdPkFromHL:sum(packetBytes) 	161720
attr interpolationmode  none
attr source  packetReceivedFromUpper
attr title  "packets received from higher layer, sum(packetBytes)"
scalar scenarioPRJP1.node[59].lo0.lo 	passedUpPk:count 	311
attr interpolationmode  none
attr source  packetSentToUpper
attr title  "packets passed to higher layer, count"
scalar scenarioPRJP1.node[59].lo0.lo 	passedUpPk:sum(packetBytes) 	161720
attr interpolationmode  none
attr source  packetSentToUpper
attr title  "packets passed to higher layer, sum(packetBytes)"
scalar scenarioPRJP1.node[74].app 	"Total sent" 	5026
scalar scenarioPRJP1.node[74].app 	"Total received" 	314
scalar scenarioPRJP1.node[74].app 	"Total deleted" 	2
scalar scenarioPRJP1.node[74].app 	dropPk:count 	2
attr interpolationmode  none
attr source  dropPk
attr title  "packets dropped, count"
scalar scenarioPRJP1.node[74].app 	dropPk:sum(packetBytes) 	1024
attr interpolationmode  none
attr source  dropPk
attr title  "packets dropped, sum(packetBytes)"
scalar scenarioPRJP1.node[74].app 	outOfOrderPk:count 	23
attr interpolationmode  none
attr source  outOfOrderPk
attr title  "packets received out of order, count"
scalar scenarioPRJP1.node[74].app 	outOfOrderPk:sum(packetBytes) 	11776
attr interpolationmode  none
attr source  outOfOrderPk
attr title  "packets received out of order, sum(packetBytes)"
scalar scenarioPRJP1.node[74].app 	rcvdPk:count 	314
attr interpolationmode  none
attr source  rcvdPk
attr title  "packets received, count"
scalar scenarioPRJP1.node[74].app 	rcvdPk:sum(packetBytes) 	160768
attr interpolationmode  none
attr source  rcvdPk
attr title  "packets received, sum(packetBytes)"
statistic scenarioPRJP1.node[74].app 	endToEndDelay:histogram
field count 314
field mean 0.91870541362775
field stddev 2.6387331061598
field sum 288.47349987911
field sqrsum 2444.4137489622
field min 0.001027098255
field max 19.572316370716
attr interpolationmode  none
attr source  messageAge(rcvdPk)
attr title  "delay, histogram"
attr unit  s
bin	-INF	0
bin	-9.7846161392075	0
bin	-8.4798635832109	0
bin	-7.1751110272143	0
bin	-5.8703584712177	0
bin	-4.5656059152211	0
bin	-3.2608533592245	0
bin	-1.9561008032279	0
bin	-0.6513482472313	234
bin	0.6534043087653	45
bin	1.9581568647619	17
bin	3.2629094207585	3
bin	4.5676619767551	4
bin	5.8724145327517	0
bin	7.1771670887483	1
bin	8.4819196447449	2
bin	9.7866722007415	0
bin	11.091424756738	1
bin	12.396177312735	0
bin	13.700929868731	3
bin	15.005682424728	3
bin	16.310434980725	0
bin	17.615187536721	0
bin	18.919940092718	1
bin	20.224692648714	0
bin	21.529445204711	0
bin	22.834197760707	0
bin	24.138950316704	0
bin	25.443702872701	0
bin	26.748455428697	0
bin	28.053207984694	0
bin	29.35796054069	0
scalar scenarioPRJP1.node[74].app 	sentPk:count 	5026
attr interpolationmode  none
attr source  sentPk
attr title  "packets sent, count"
scalar scenarioPRJP1.node[74].app 	sentPk:sum(packetBytes) 	2573312
attr interpolationmode  none
attr source  sentPk
attr title  "packets sent, sum(packetBytes)"
scalar scenarioPRJP1.node[74].udp 	droppedPkBadChecksum:count 	0
attr interpolationmode  none
attr title  "packets dropped (checksum error), count"
scalar scenarioPRJP1.node[74].udp 	droppedPkWrongPort:count 	0
attr interpolationmode  none
attr title  "packets dropped (wrong port), count"
scalar scenarioPRJP1.node[74].udp 	passedUpPk:count 	339
attr interpolationmode  none
attr title  "packets passed up, count"
scalar scenarioPRJP1.node[74].udp 	rcvdPk:count 	339
attr interpolationmode  none
attr source  rcvdPk
attr title  "packets received, count"
scalar scenarioPRJP1.node[74].udp 	rcvdPk:sum(packetBytes) 	176280
attr interpolationmode  none
attr source  rcvdPk
attr title  "packets received, sum(packetBytes)"
scalar scenarioPRJP1.node[74].udp 	sentPk:count 	5026
attr interpolationmode  none
attr source  sentPk
attr title  "packets sent, count"
scalar scenarioPRJP1.node[74].udp 	sentPk:sum(packetBytes) 	2613520
attr interpolationmode  none
attr source  sentPk
attr title  "packets sent, sum(packetBytes)"
scalar scenarioPRJP1.node[74].networkLayer.arp 	failedARPResolution:count 	373
attr title  "ARP failed resolutions, count"
scalar scenarioPRJP1.node[74].networkLayer.arp 	completedARPResolution:count 	5839
attr title  "ARP completed resolutions, count"
scalar scenarioPRJP1.node[74].networkLayer.arp 	initiatedARPResolution:count 	484
attr title  "ARP initiated resolutions, count"
scalar scenarioPRJP1.node[74].networkLayer.arp 	sentReply:count 	73
attr title  "ARP replies sent, count"
scalar scenarioPRJP1.node[74].networkLayer.arp 	sentReq:count 	1294
attr title  "ARP request sent, count"
scalar scenarioPRJP1.node[74].mobility 	startTime 	7.5
scalar scenarioPRJP1.node[74].mobility 	totalTime 	1892.5
scalar scenarioPRJP1.node[74].mobility 	stopTime 	1900
scalar scenarioPRJP1.node[74].mobility 	minSpeed 	2.4754886499492e-13
scalar scenarioPRJP1.node[74].mobility 	maxSpeed 	18.708899390989
scalar scenarioPRJP1.node[74].mobility 	totalDistance 	18732.033835517
scalar scenarioPRJP1.node[74].mobility 	totalCO2Emission 	5214.2235667273
scalar scenarioPRJP1.node[74].wlan.mgmt 	dataQueueLen:max 	9
attr interpolationmode  sample-hold
attr title  "data queue length, max"
scalar scenarioPRJP1.node[74].wlan.mgmt 	dataQueueLen:timeavg 	0
attr interpolationmode  sample-hold
attr title  "data queue length, timeavg"
scalar scenarioPRJP1.node[74].wlan.mgmt 	dropPkByQueue:count 	0
attr interpolationmode  none
attr source  dropPkByQueue
attr title  "packets dropped by queue, count"
scalar scenarioPRJP1.node[74].wlan.mgmt 	dropPkByQueue:sum(packetBytes) 	0
attr interpolationmode  none
attr source  dropPkByQueue
attr title  "packets dropped by queue, sum(packetBytes)"
scalar scenarioPRJP1.node[74].wlan.mac 	"number of received packets" 	12771
scalar scenarioPRJP1.node[74].wlan.mac 	"number of collisions" 	126185
scalar scenarioPRJP1.node[74].wlan.mac 	"number of internal collisions" 	0
scalar scenarioPRJP1.node[74].wlan.mac 	"number of retry for AC 0" 	38162
scalar scenarioPRJP1.node[74].wlan.mac 	"number of retry for AC 1" 	0
scalar scenarioPRJP1.node[74].wlan.mac 	"number of retry for AC 2" 	0
scalar scenarioPRJP1.node[74].wlan.mac 	"number of retry for AC 3" 	0
scalar scenarioPRJP1.node[74].wlan.mac 	"sent and received bits" 	33497824
scalar scenarioPRJP1.node[74].wlan.mac 	"sent packet within AC 0" 	12385
scalar scenarioPRJP1.node[74].wlan.mac 	"sent packet within AC 1" 	0
scalar scenarioPRJP1.node[74].wlan.mac 	"sent packet within AC 2" 	0
scalar scenarioPRJP1.node[74].wlan.mac 	"sent packet within AC 3" 	0
scalar scenarioPRJP1.node[74].wlan.mac 	"sent in TXOP " 	0
scalar scenarioPRJP1.node[74].wlan.mac 	"sentWithoutRetry AC 0" 	10125
scalar scenarioPRJP1.node[74].wlan.mac 	"sentWithoutRetry AC 1" 	0
scalar scenarioPRJP1.node[74].wlan.mac 	"sentWithoutRetry AC 2" 	0
scalar scenarioPRJP1.node[74].wlan.mac 	"sentWithoutRetry AC 3" 	0
scalar scenarioPRJP1.node[74].wlan.mac 	"numGivenUp AC 0" 	5415
scalar scenarioPRJP1.node[74].wlan.mac 	"numGivenUp AC 1" 	0
scalar scenarioPRJP1.node[74].wlan.mac 	"numGivenUp AC 2" 	0
scalar scenarioPRJP1.node[74].wlan.mac 	"numGivenUp AC 3" 	0
scalar scenarioPRJP1.node[74].wlan.mac 	"numDropped AC 0" 	0
scalar scenarioPRJP1.node[74].wlan.mac 	"numDropped AC 1" 	0
scalar scenarioPRJP1.node[74].wlan.mac 	"numDropped AC 2" 	0
scalar scenarioPRJP1.node[74].wlan.mac 	"numDropped AC 3" 	0
scalar scenarioPRJP1.node[74].wlan.mac 	rcvdPkFromLL:count 	464587
attr interpolationmode  none
attr source  packetReceivedFromLower
attr title  "packets received from lower layer, count"
scalar scenarioPRJP1.node[74].wlan.mac 	rcvdPkFromLL:sum(packetBytes) 	149529566
attr interpolationmode  none
attr source  packetReceivedFromLower
attr title  "packets received from lower layer, sum(packetBytes)"
scalar scenarioPRJP1.node[74].wlan.mac 	sentDownPk:count 	78178
attr interpolationmode  none
attr source  packetSentToLower
attr title  "packets sent to lower layer, count"
scalar scenarioPRJP1.node[74].wlan.mac 	sentDownPk:sum(packetBytes) 	24452958
attr interpolationmode  none
attr source  packetSentToLower
attr title  "packets sent to lower layer, sum(packetBytes)"
scalar scenarioPRJP1.node[74].wlan.mac 	rcvdPkFromHL:count 	27245
attr interpolationmode  none
attr source  packetReceivedFromUpper
attr title  "packets received from higher layer, count"
scalar scenarioPRJP1.node[74].wlan.mac 	rcvdPkFromHL:sum(packetBytes) 	6780088
attr interpolationmode  none
attr source  packetReceivedFromUpper
attr title  "packets received from higher layer, sum(packetBytes)"
scalar scenarioPRJP1.node[74].wlan.mac 	passedUpPk:count 	45311
attr interpolationmode  none
attr source  packetSentToUpper
attr title  "packets passed to higher layer, count"
scalar scenarioPRJP1.node[74].wlan.mac 	passedUpPk:sum(packetBytes) 	5581832
attr interpolationmode  none
attr source  packetSentToUpper
attr title  "packets passed to higher layer, sum(packetBytes)"
statistic scenarioPRJP1.node[74].wlan.radio 	radioChannel:histogram
field count 1
field mean 3
field stddev -nan
field sum 3
field sqrsum 9
field min 3
field max 3
attr interpolationmode  sample-hold
attr source  radioChannelChanged
attr title  "Radio channel, histogram"
bin	-INF	0
bin	2	0
bin	3	1
bin	4	0
scalar scenarioPRJP1.node[74].wlan.radio 	transmissionState:count 	312712
attr interpolationmode  sample-hold
attr source  transmissionStateChanged
attr title  "Radio transmission state, count"
scalar scenarioPRJP1.node[74].wlan.radio 	receptionState:count 	2339404
attr interpolationmode  sample-hold
attr source  receptionStateChanged
attr title  "Radio reception state, count"
scalar scenarioPRJP1.node[74].wlan.radio 	radioMode:count 	156358
attr interpolationmode  sample-hold
attr source  radioModeChanged
attr title  "Radio mode, count"
statistic scenarioPRJP1.node[74].wlan.radio 	symbolErrorRate:histogram
field count 0
field mean -nan
field stddev -nan
field sum 0
field sqrsum 0
field min -nan
field max -nan
attr source  symbolErrorRate
attr title  "Symbol error rate, histogram"
bin	-INF	0
bin	-0.5	0
bin	-0.46666666666667	0
bin	-0.43333333333333	0
bin	-0.4	0
bin	-0.36666666666667	0
bin	-0.33333333333333	0
bin	-0.3	0
bin	-0.26666666666667	0
bin	-0.23333333333333	0
bin	-0.2	0
bin	-0.16666666666667	0
bin	-0.13333333333333	0
bin	-0.1	0
bin	-0.066666666666667	0
bin	-0.033333333333333	0
bin	0	0
bin	0.033333333333333	0
bin	0.066666666666667	0
bin	0.1	0
bin	0.13333333333333	0
bin	0.16666666666667	0
bin	0.2	0
bin	0.23333333333333	0
bin	0.26666666666667	0
bin	0.3	0
bin	0.33333333333333	0
bin	0.36666666666667	0
bin	0.4	0
bin	0.43333333333333	0
bin	0.46666666666667	0
bin	0.5	0
statistic scenarioPRJP1.node[74].wlan.radio 	bitErrorRate:histogram
field count 0
field mean -nan
field stddev -nan
field sum 0
field sqrsum 0
field min -nan
field max -nan
attr source  bitErrorRate
attr title  "Bit error rate, histogram"
bin	-INF	0
bin	-0.5	0
bin	-0.46666666666667	0
bin	-0.43333333333333	0
bin	-0.4	0
bin	-0.36666666666667	0
bin	-0.33333333333333	0
bin	-0.3	0
bin	-0.26666666666667	0
bin	-0.23333333333333	0
bin	-0.2	0
bin	-0.16666666666667	0
bin	-0.13333333333333	0
bin	-0.1	0
bin	-0.066666666666667	0
bin	-0.033333333333333	0
bin	0	0
bin	0.033333333333333	0
bin	0.066666666666667	0
bin	0.1	0
bin	0.13333333333333	0
bin	0.16666666666667	0
bin	0.2	0
bin	0.23333333333333	0
bin	0.26666666666667	0
bin	0.3	0
bin	0.33333333333333	0
bin	0.36666666666667	0
bin	0.4	0
bin	0.43333333333333	0
bin	0.46666666666667	0
bin	0.5	0
statistic scenarioPRJP1.node[74].wlan.radio 	packetErrorRate:histogram
field count 464587
field mean 0.2596018979953
field stddev 0.42909938760016
field sum 120607.66698394
field sqrsum 116852.47324411
field min 0
field max 1
attr source  packetErrorRate
attr title  "Packet error rate, histogram"
bin	-INF	0
bin	-0.0083129359330609	0
bin	-0.0072045444753195	0
bin	-0.006096153017578	0
bin	-0.0049877615598366	0
bin	-0.0038793701020951	0
bin	-0.0027709786443536	0
bin	-0.0016625871866122	0
bin	-0.00055419572887073	308368
bin	0.00055419572887073	5129
bin	0.0016625871866122	2449
bin	0.0027709786443536	1613
bin	0.0038793701020951	1171
bin	0.0049877615598366	985
bin	0.006096153017578	859
bin	0.0072045444753195	753
bin	0.0083129359330609	653
bin	0.0094213273908024	608
bin	0.010529718848544	562
bin	0.011638110306285	470
bin	0.012746501764027	419
bin	0.013854893221768	432
bin	0.01496328467951	375
bin	0.016071676137251	372
bin	0.017180067594993	333
bin	0.018288459052734	349
bin	0.019396850510475	309
bin	0.020505241968217	262
bin	0.021613633425958	266
bin	0.0227220248837	240
bin	0.023830416341441	251
bin	0.024938807799183	137359
statistic scenarioPRJP1.node[74].wlan.radio 	minSNIR:histogram
field count 464587
field mean 12467.312503114
field stddev 159816.0712711
field sum 5792151313.8844
field sqrsum 1.1938285649355e+16
field min 0.00011556754023872
field max 7775866.2649754
attr source  minSNIR
attr title  "Min SNIR, histogram"
bin	-INF	0
bin	-1455.3047275769	0
bin	-1260.9552839625	0
bin	-1066.6058403482	0
bin	-872.2563967338	0
bin	-677.90695311943	0
bin	-483.55750950506	0
bin	-289.20806589069	0
bin	-94.858622276319	314209
bin	99.490821338052	33516
bin	293.84026495242	24804
bin	488.18970856679	13671
bin	682.53915218116	8614
bin	876.88859579553	5954
bin	1071.2380394099	4501
bin	1265.5874830243	3472
bin	1459.9369266386	3060
bin	1654.286370253	2832
bin	1848.6358138674	2602
bin	2042.9852574818	2225
bin	2237.3347010961	1870
bin	2431.6841447105	1646
bin	2626.0335883249	1471
bin	2820.3830319392	1071
bin	3014.7324755536	1070
bin	3209.081919168	916
bin	3403.4313627824	798
bin	3597.7808063967	823
bin	3792.1302500111	731
bin	3986.4796936255	781
bin	4180.8291372398	579
bin	4375.1785808542	33371
scalar scenarioPRJP1.node[74].lo0.lo 	droppedPkBitError:count 	0
attr interpolationmode  none
attr source  dropPkBitError
attr title  "packets dropped/bit error, count"
scalar scenarioPRJP1.node[74].lo0.lo 	droppedPkBitError:sum(packetBytes) 	0
attr interpolationmode  none
attr source  dropPkBitError
attr title  "packets dropped/bit error, sum(packetBytes)"
scalar scenarioPRJP1.node[74].lo0.lo 	rcvdPkFromHL:count 	339
attr interpolationmode  none
attr source  packetReceivedFromUpper
attr title  "packets received from higher layer, count"
scalar scenarioPRJP1.node[74].lo0.lo 	rcvdPkFromHL:sum(packetBytes) 	176280
attr interpolationmode  none
attr source  packetReceivedFromUpper
attr title  "packets received from higher layer, sum(packetBytes)"
scalar scenarioPRJP1.node[74].lo0.lo 	passedUpPk:count 	339
attr interpolationmode  none
attr source  packetSentToUpper
attr title  "packets passed to higher layer, count"
scalar scenarioPRJP1.node[74].lo0.lo 	passedUpPk:sum(packetBytes) 	176280
attr interpolationmode  none
attr source  packetSentToUpper
attr title  "packets passed to higher layer, sum(packetBytes)"
