version 2
run DSRUU-FS-75n-2-20150724-17:22:04-3695
attr configname DSRUU-FS-75n
attr datetime 20150724-17:22:04
attr experiment DSRUU-FS-75n
attr inifile omnetpp.ini
attr iterationvars ""
attr iterationvars2 $repetition=2
attr measurement ""
attr network Prj_Part1_propag.scenarioPRJP1
attr processid 3695
attr repetition 2
attr replication #2
attr resultdir results
attr runnumber 2
attr seedset 2

scalar scenarioPRJP1.radioMedium.propagation 	"Arrival computation count" 	379608974
scalar scenarioPRJP1.radioMedium 	"transmission count" 	5129851
scalar scenarioPRJP1.radioMedium 	"radio frame send count" 	379608974
scalar scenarioPRJP1.radioMedium 	"reception computation count" 	374043838
scalar scenarioPRJP1.radioMedium 	"interference computation count" 	954266943
scalar scenarioPRJP1.radioMedium 	"reception decision computation count" 	24465222
scalar scenarioPRJP1.radioMedium 	"listening decision computation count" 	566801765
scalar scenarioPRJP1.radioMedium 	"reception cache hit" 	90.322847425023
attr unit  %
scalar scenarioPRJP1.radioMedium 	"interference cache hit" 	50
attr unit  %
scalar scenarioPRJP1.radioMedium 	"noise cache hit" 	0
attr unit  %
scalar scenarioPRJP1.radioMedium 	"snir cache hit" 	0
attr unit  %
scalar scenarioPRJP1.radioMedium 	"reception decision cache hit" 	0
attr unit  %
scalar scenarioPRJP1.node[0].app 	"Total sent" 	2610
scalar scenarioPRJP1.node[0].app 	"Total received" 	136
scalar scenarioPRJP1.node[0].app 	"Total deleted" 	11
scalar scenarioPRJP1.node[0].app 	dropPk:count 	11
attr interpolationmode  none
attr source  dropPk
attr title  "packets dropped, count"
scalar scenarioPRJP1.node[0].app 	dropPk:sum(packetBytes) 	5632
attr interpolationmode  none
attr source  dropPk
attr title  "packets dropped, sum(packetBytes)"
scalar scenarioPRJP1.node[0].app 	outOfOrderPk:count 	23
attr interpolationmode  none
attr source  outOfOrderPk
attr title  "packets received out of order, count"
scalar scenarioPRJP1.node[0].app 	outOfOrderPk:sum(packetBytes) 	11776
attr interpolationmode  none
attr source  outOfOrderPk
attr title  "packets received out of order, sum(packetBytes)"
scalar scenarioPRJP1.node[0].app 	rcvdPk:count 	136
attr interpolationmode  none
attr source  rcvdPk
attr title  "packets received, count"
scalar scenarioPRJP1.node[0].app 	rcvdPk:sum(packetBytes) 	69632
attr interpolationmode  none
attr source  rcvdPk
attr title  "packets received, sum(packetBytes)"
statistic scenarioPRJP1.node[0].app 	endToEndDelay:histogram
field count 136
field mean 1.6119026992002
field stddev 3.3757991545852
field sum 219.21876709123
field sqrsum 1891.822013223
field min 0.000964041345
field max 18.623626980568
attr interpolationmode  none
attr source  messageAge(rcvdPk)
attr title  "delay, histogram"
attr unit  s
bin	-INF	0
bin	-9.3103674282665	0
bin	-8.0688565656516	0
bin	-6.8273457030368	0
bin	-5.5858348404219	0
bin	-4.344323977807	0
bin	-3.1028131151922	0
bin	-1.8613022525773	0
bin	-0.61979138996243	91
bin	0.62171947265243	17
bin	1.8632303352673	6
bin	3.1047411978822	5
bin	4.346252060497	4
bin	5.5877629231119	3
bin	6.8292737857268	0
bin	8.0707846483416	2
bin	9.3122955109565	1
bin	10.553806373571	3
bin	11.795317236186	0
bin	13.036828098801	3
bin	14.278338961416	0
bin	15.519849824031	0
bin	16.761360686646	0
bin	18.002871549261	1
bin	19.244382411875	0
bin	20.48589327449	0
bin	21.727404137105	0
bin	22.96891499972	0
bin	24.210425862335	0
bin	25.45193672495	0
bin	26.693447587565	0
bin	27.934958450179	0
scalar scenarioPRJP1.node[0].app 	sentPk:count 	2610
attr interpolationmode  none
attr source  sentPk
attr title  "packets sent, count"
scalar scenarioPRJP1.node[0].app 	sentPk:sum(packetBytes) 	1336320
attr interpolationmode  none
attr source  sentPk
attr title  "packets sent, sum(packetBytes)"
scalar scenarioPRJP1.node[0].udp 	droppedPkBadChecksum:count 	0
attr interpolationmode  none
attr title  "packets dropped (checksum error), count"
scalar scenarioPRJP1.node[0].udp 	droppedPkWrongPort:count 	0
attr interpolationmode  none
attr title  "packets dropped (wrong port), count"
scalar scenarioPRJP1.node[0].udp 	passedUpPk:count 	170
attr interpolationmode  none
attr title  "packets passed up, count"
scalar scenarioPRJP1.node[0].udp 	rcvdPk:count 	170
attr interpolationmode  none
attr source  rcvdPk
attr title  "packets received, count"
scalar scenarioPRJP1.node[0].udp 	rcvdPk:sum(packetBytes) 	88400
attr interpolationmode  none
attr source  rcvdPk
attr title  "packets received, sum(packetBytes)"
scalar scenarioPRJP1.node[0].udp 	sentPk:count 	2610
attr interpolationmode  none
attr source  sentPk
attr title  "packets sent, count"
scalar scenarioPRJP1.node[0].udp 	sentPk:sum(packetBytes) 	1357200
attr interpolationmode  none
attr source  sentPk
attr title  "packets sent, sum(packetBytes)"
scalar scenarioPRJP1.node[0].networkLayer.arp 	failedARPResolution:count 	112
attr title  "ARP failed resolutions, count"
scalar scenarioPRJP1.node[0].networkLayer.arp 	completedARPResolution:count 	1080
attr title  "ARP completed resolutions, count"
scalar scenarioPRJP1.node[0].networkLayer.arp 	initiatedARPResolution:count 	182
attr title  "ARP initiated resolutions, count"
scalar scenarioPRJP1.node[0].networkLayer.arp 	sentReply:count 	48
attr title  "ARP replies sent, count"
scalar scenarioPRJP1.node[0].networkLayer.arp 	sentReq:count 	445
attr title  "ARP request sent, count"
scalar scenarioPRJP1.node[0].mobility 	startTime 	0.1
scalar scenarioPRJP1.node[0].mobility 	totalTime 	949.9
scalar scenarioPRJP1.node[0].mobility 	stopTime 	950
scalar scenarioPRJP1.node[0].mobility 	minSpeed 	2.4758492225336e-13
scalar scenarioPRJP1.node[0].mobility 	maxSpeed 	18.826699377927
scalar scenarioPRJP1.node[0].mobility 	totalDistance 	10799.475750277
scalar scenarioPRJP1.node[0].mobility 	totalCO2Emission 	2816.1643926998
scalar scenarioPRJP1.node[0].wlan.mgmt 	dataQueueLen:max 	24
attr interpolationmode  sample-hold
attr title  "data queue length, max"
scalar scenarioPRJP1.node[0].wlan.mgmt 	dataQueueLen:timeavg 	0.019091262631016
attr interpolationmode  sample-hold
attr title  "data queue length, timeavg"
scalar scenarioPRJP1.node[0].wlan.mgmt 	dropPkByQueue:count 	0
attr interpolationmode  none
attr source  dropPkByQueue
attr title  "packets dropped by queue, count"
scalar scenarioPRJP1.node[0].wlan.mgmt 	dropPkByQueue:sum(packetBytes) 	0
attr interpolationmode  none
attr source  dropPkByQueue
attr title  "packets dropped by queue, sum(packetBytes)"
scalar scenarioPRJP1.node[0].wlan.mac 	"number of received packets" 	13483
scalar scenarioPRJP1.node[0].wlan.mac 	"number of collisions" 	74480
scalar scenarioPRJP1.node[0].wlan.mac 	"number of internal collisions" 	0
scalar scenarioPRJP1.node[0].wlan.mac 	"number of retry for AC 0" 	38746
scalar scenarioPRJP1.node[0].wlan.mac 	"number of retry for AC 1" 	0
scalar scenarioPRJP1.node[0].wlan.mac 	"number of retry for AC 2" 	0
scalar scenarioPRJP1.node[0].wlan.mac 	"number of retry for AC 3" 	0
scalar scenarioPRJP1.node[0].wlan.mac 	"sent and received bits" 	18129696
scalar scenarioPRJP1.node[0].wlan.mac 	"sent packet within AC 0" 	5213
scalar scenarioPRJP1.node[0].wlan.mac 	"sent packet within AC 1" 	0
scalar scenarioPRJP1.node[0].wlan.mac 	"sent packet within AC 2" 	0
scalar scenarioPRJP1.node[0].wlan.mac 	"sent packet within AC 3" 	0
scalar scenarioPRJP1.node[0].wlan.mac 	"sent in TXOP " 	0
scalar scenarioPRJP1.node[0].wlan.mac 	"sentWithoutRetry AC 0" 	4687
scalar scenarioPRJP1.node[0].wlan.mac 	"sentWithoutRetry AC 1" 	0
scalar scenarioPRJP1.node[0].wlan.mac 	"sentWithoutRetry AC 2" 	0
scalar scenarioPRJP1.node[0].wlan.mac 	"sentWithoutRetry AC 3" 	0
scalar scenarioPRJP1.node[0].wlan.mac 	"numGivenUp AC 0" 	6258
scalar scenarioPRJP1.node[0].wlan.mac 	"numGivenUp AC 1" 	0
scalar scenarioPRJP1.node[0].wlan.mac 	"numGivenUp AC 2" 	0
scalar scenarioPRJP1.node[0].wlan.mac 	"numGivenUp AC 3" 	0
scalar scenarioPRJP1.node[0].wlan.mac 	"numDropped AC 0" 	188
scalar scenarioPRJP1.node[0].wlan.mac 	"numDropped AC 1" 	0
scalar scenarioPRJP1.node[0].wlan.mac 	"numDropped AC 2" 	0
scalar scenarioPRJP1.node[0].wlan.mac 	"numDropped AC 3" 	0
scalar scenarioPRJP1.node[0].wlan.mac 	rcvdPkFromLL:count 	299790
attr interpolationmode  none
attr source  packetReceivedFromLower
attr title  "packets received from lower layer, count"
scalar scenarioPRJP1.node[0].wlan.mac 	rcvdPkFromLL:sum(packetBytes) 	70444958
attr interpolationmode  none
attr source  packetReceivedFromLower
attr title  "packets received from lower layer, sum(packetBytes)"
scalar scenarioPRJP1.node[0].wlan.mac 	sentDownPk:count 	76721
attr interpolationmode  none
attr source  packetSentToLower
attr title  "packets sent to lower layer, count"
scalar scenarioPRJP1.node[0].wlan.mac 	sentDownPk:sum(packetBytes) 	20593278
attr interpolationmode  none
attr source  packetSentToLower
attr title  "packets sent to lower layer, sum(packetBytes)"
scalar scenarioPRJP1.node[0].wlan.mac 	rcvdPkFromHL:count 	24680
attr interpolationmode  none
attr source  packetReceivedFromUpper
attr title  "packets received from higher layer, count"
scalar scenarioPRJP1.node[0].wlan.mac 	rcvdPkFromHL:sum(packetBytes) 	4829232
attr interpolationmode  none
attr source  packetReceivedFromUpper
attr title  "packets received from higher layer, sum(packetBytes)"
scalar scenarioPRJP1.node[0].wlan.mac 	passedUpPk:count 	45448
attr interpolationmode  none
attr source  packetSentToUpper
attr title  "packets passed to higher layer, count"
scalar scenarioPRJP1.node[0].wlan.mac 	passedUpPk:sum(packetBytes) 	5086284
attr interpolationmode  none
attr source  packetSentToUpper
attr title  "packets passed to higher layer, sum(packetBytes)"
statistic scenarioPRJP1.node[0].wlan.radio 	radioChannel:histogram
field count 1
field mean 3
field stddev -nan
field sum 3
field sqrsum 9
field min 3
field max 3
attr interpolationmode  sample-hold
attr source  radioChannelChanged
attr title  "Radio channel, histogram"
bin	-INF	0
bin	2	0
bin	3	1
bin	4	0
scalar scenarioPRJP1.node[0].wlan.radio 	transmissionState:count 	306884
attr interpolationmode  sample-hold
attr source  transmissionStateChanged
attr title  "Radio transmission state, count"
scalar scenarioPRJP1.node[0].wlan.radio 	receptionState:count 	776010
attr interpolationmode  sample-hold
attr source  receptionStateChanged
attr title  "Radio reception state, count"
scalar scenarioPRJP1.node[0].wlan.radio 	radioMode:count 	153444
attr interpolationmode  sample-hold
attr source  radioModeChanged
attr title  "Radio mode, count"
statistic scenarioPRJP1.node[0].wlan.radio 	symbolErrorRate:histogram
field count 0
field mean -nan
field stddev -nan
field sum 0
field sqrsum 0
field min -nan
field max -nan
attr source  symbolErrorRate
attr title  "Symbol error rate, histogram"
bin	-INF	0
bin	-0.5	0
bin	-0.46666666666667	0
bin	-0.43333333333333	0
bin	-0.4	0
bin	-0.36666666666667	0
bin	-0.33333333333333	0
bin	-0.3	0
bin	-0.26666666666667	0
bin	-0.23333333333333	0
bin	-0.2	0
bin	-0.16666666666667	0
bin	-0.13333333333333	0
bin	-0.1	0
bin	-0.066666666666667	0
bin	-0.033333333333333	0
bin	0	0
bin	0.033333333333333	0
bin	0.066666666666667	0
bin	0.1	0
bin	0.13333333333333	0
bin	0.16666666666667	0
bin	0.2	0
bin	0.23333333333333	0
bin	0.26666666666667	0
bin	0.3	0
bin	0.33333333333333	0
bin	0.36666666666667	0
bin	0.4	0
bin	0.43333333333333	0
bin	0.46666666666667	0
bin	0.5	0
statistic scenarioPRJP1.node[0].wlan.radio 	bitErrorRate:histogram
field count 0
field mean -nan
field stddev -nan
field sum 0
field sqrsum 0
field min -nan
field max -nan
attr source  bitErrorRate
attr title  "Bit error rate, histogram"
bin	-INF	0
bin	-0.5	0
bin	-0.46666666666667	0
bin	-0.43333333333333	0
bin	-0.4	0
bin	-0.36666666666667	0
bin	-0.33333333333333	0
bin	-0.3	0
bin	-0.26666666666667	0
bin	-0.23333333333333	0
bin	-0.2	0
bin	-0.16666666666667	0
bin	-0.13333333333333	0
bin	-0.1	0
bin	-0.066666666666667	0
bin	-0.033333333333333	0
bin	0	0
bin	0.033333333333333	0
bin	0.066666666666667	0
bin	0.1	0
bin	0.13333333333333	0
bin	0.16666666666667	0
bin	0.2	0
bin	0.23333333333333	0
bin	0.26666666666667	0
bin	0.3	0
bin	0.33333333333333	0
bin	0.36666666666667	0
bin	0.4	0
bin	0.43333333333333	0
bin	0.46666666666667	0
bin	0.5	0
statistic scenarioPRJP1.node[0].wlan.radio 	packetErrorRate:histogram
field count 299790
field mean 0.23012855823836
field stddev 0.4111855722225
field sum 68990.240474276
field sqrsum 66563.022489763
field min 0
field max 1
attr source  packetErrorRate
attr title  "Packet error rate, histogram"
bin	-INF	0
bin	-0.49999999999972	0
bin	-0.43333333333306	0
bin	-0.36666666666641	0
bin	-0.29999999999975	0
bin	-0.2333333333331	0
bin	-0.16666666666645	0
bin	-0.099999999999792	0
bin	-0.033333333333138	220871
bin	0.033333333333516	4027
bin	0.10000000000017	1922
bin	0.16666666666682	1386
bin	0.23333333333348	1024
bin	0.30000000000013	900
bin	0.36666666666679	766
bin	0.43333333333344	677
bin	0.50000000000009	643
bin	0.56666666666675	626
bin	0.6333333333334	664
bin	0.70000000000006	661
bin	0.76666666666671	683
bin	0.83333333333336	877
bin	0.90000000000002	1287
bin	0.96666666666667	62776
bin	1.0333333333333	0
bin	1.1	0
bin	1.1666666666666	0
bin	1.2333333333333	0
bin	1.2999999999999	0
bin	1.3666666666666	0
bin	1.4333333333333	0
bin	1.4999999999999	0
statistic scenarioPRJP1.node[0].wlan.radio 	minSNIR:histogram
field count 299790
field mean 2769.9883023468
field stddev 35538.063767812
field sum 830414793.16054
field sqrsum 3.8091994888367e+14
field min 0.00016967570497858
field max 772804.93067567
attr source  minSNIR
attr title  "Min SNIR, histogram"
bin	-INF	0
bin	-1.7124154265154	0
bin	-1.333322986863	0
bin	-0.95423054721053	0
bin	-0.57513810755808	0
bin	-0.19604566790563	1510
bin	0.18304677174682	6103
bin	0.56213921139927	9110
bin	0.94123165105172	10274
bin	1.3203240907042	9923
bin	1.6994165303566	9467
bin	2.0785089700091	8936
bin	2.4576014096615	8142
bin	2.836693849314	7524
bin	3.2157862889664	6832
bin	3.5948787286189	6214
bin	3.9739711682713	5609
bin	4.3530636079238	5232
bin	4.7321560475762	4762
bin	5.1112484872287	4479
bin	5.4903409268811	4145
bin	5.8694333665336	3866
bin	6.248525806186	3680
bin	6.6276182458385	3577
bin	7.0067106854909	3104
bin	7.3858031251434	2941
bin	7.7648955647958	2821
bin	8.1439880044483	2626
bin	8.5230804441007	2524
bin	8.9021728837532	2346
bin	9.2812653234056	2231
bin	9.6603577630581	161812
scalar scenarioPRJP1.node[0].lo0.lo 	droppedPkBitError:count 	0
attr interpolationmode  none
attr source  dropPkBitError
attr title  "packets dropped/bit error, count"
scalar scenarioPRJP1.node[0].lo0.lo 	droppedPkBitError:sum(packetBytes) 	0
attr interpolationmode  none
attr source  dropPkBitError
attr title  "packets dropped/bit error, sum(packetBytes)"
scalar scenarioPRJP1.node[0].lo0.lo 	rcvdPkFromHL:count 	170
attr interpolationmode  none
attr source  packetReceivedFromUpper
attr title  "packets received from higher layer, count"
scalar scenarioPRJP1.node[0].lo0.lo 	rcvdPkFromHL:sum(packetBytes) 	88400
attr interpolationmode  none
attr source  packetReceivedFromUpper
attr title  "packets received from higher layer, sum(packetBytes)"
scalar scenarioPRJP1.node[0].lo0.lo 	passedUpPk:count 	170
attr interpolationmode  none
attr source  packetSentToUpper
attr title  "packets passed to higher layer, count"
scalar scenarioPRJP1.node[0].lo0.lo 	passedUpPk:sum(packetBytes) 	88400
attr interpolationmode  none
attr source  packetSentToUpper
attr title  "packets passed to higher layer, sum(packetBytes)"
scalar scenarioPRJP1.node[21].app 	"Total sent" 	2606
scalar scenarioPRJP1.node[21].app 	"Total received" 	144
scalar scenarioPRJP1.node[21].app 	"Total deleted" 	5
scalar scenarioPRJP1.node[21].app 	dropPk:count 	5
attr interpolationmode  none
attr source  dropPk
attr title  "packets dropped, count"
scalar scenarioPRJP1.node[21].app 	dropPk:sum(packetBytes) 	2560
attr interpolationmode  none
attr source  dropPk
attr title  "packets dropped, sum(packetBytes)"
scalar scenarioPRJP1.node[21].app 	outOfOrderPk:count 	9
attr interpolationmode  none
attr source  outOfOrderPk
attr title  "packets received out of order, count"
scalar scenarioPRJP1.node[21].app 	outOfOrderPk:sum(packetBytes) 	4608
attr interpolationmode  none
attr source  outOfOrderPk
attr title  "packets received out of order, sum(packetBytes)"
scalar scenarioPRJP1.node[21].app 	rcvdPk:count 	144
attr interpolationmode  none
attr source  rcvdPk
attr title  "packets received, count"
scalar scenarioPRJP1.node[21].app 	rcvdPk:sum(packetBytes) 	73728
attr interpolationmode  none
attr source  rcvdPk
attr title  "packets received, sum(packetBytes)"
statistic scenarioPRJP1.node[21].app 	endToEndDelay:histogram
field count 144
field mean 1.0422896896225
field stddev 2.7950844944279
field sum 150.08971530564
field sqrsum 1273.6240811132
field min 0.000964037357
field max 19.145083801917
attr interpolationmode  none
attr source  messageAge(rcvdPk)
attr title  "delay, histogram"
attr unit  s
bin	-INF	0
bin	-9.571095844923	0
bin	-8.2948211939523	0
bin	-7.0185465429817	0
bin	-5.742271892011	0
bin	-4.4659972410403	0
bin	-3.1897225900697	0
bin	-1.913447939099	0
bin	-0.63717328812833	109
bin	0.63910136284233	15
bin	1.915376013813	9
bin	3.1916506647837	2
bin	4.4679253157543	1
bin	5.744199966725	2
bin	7.0204746176957	1
bin	8.2967492686663	0
bin	9.573023919637	2
bin	10.849298570608	0
bin	12.125573221578	0
bin	13.401847872549	1
bin	14.67812252352	1
bin	15.95439717449	0
bin	17.230671825461	0
bin	18.506946476432	1
bin	19.783221127402	0
bin	21.059495778373	0
bin	22.335770429344	0
bin	23.612045080314	0
bin	24.888319731285	0
bin	26.164594382256	0
bin	27.440869033226	0
bin	28.717143684197	0
scalar scenarioPRJP1.node[21].app 	sentPk:count 	2606
attr interpolationmode  none
attr source  sentPk
attr title  "packets sent, count"
scalar scenarioPRJP1.node[21].app 	sentPk:sum(packetBytes) 	1334272
attr interpolationmode  none
attr source  sentPk
attr title  "packets sent, sum(packetBytes)"
scalar scenarioPRJP1.node[21].udp 	droppedPkBadChecksum:count 	0
attr interpolationmode  none
attr title  "packets dropped (checksum error), count"
scalar scenarioPRJP1.node[21].udp 	droppedPkWrongPort:count 	0
attr interpolationmode  none
attr title  "packets dropped (wrong port), count"
scalar scenarioPRJP1.node[21].udp 	passedUpPk:count 	158
attr interpolationmode  none
attr title  "packets passed up, count"
scalar scenarioPRJP1.node[21].udp 	rcvdPk:count 	158
attr interpolationmode  none
attr source  rcvdPk
attr title  "packets received, count"
scalar scenarioPRJP1.node[21].udp 	rcvdPk:sum(packetBytes) 	82160
attr interpolationmode  none
attr source  rcvdPk
attr title  "packets received, sum(packetBytes)"
scalar scenarioPRJP1.node[21].udp 	sentPk:count 	2606
attr interpolationmode  none
attr source  sentPk
attr title  "packets sent, count"
scalar scenarioPRJP1.node[21].udp 	sentPk:sum(packetBytes) 	1355120
attr interpolationmode  none
attr source  sentPk
attr title  "packets sent, sum(packetBytes)"
scalar scenarioPRJP1.node[21].networkLayer.arp 	failedARPResolution:count 	107
attr title  "ARP failed resolutions, count"
scalar scenarioPRJP1.node[21].networkLayer.arp 	completedARPResolution:count 	1396
attr title  "ARP completed resolutions, count"
scalar scenarioPRJP1.node[21].networkLayer.arp 	initiatedARPResolution:count 	180
attr title  "ARP initiated resolutions, count"
scalar scenarioPRJP1.node[21].networkLayer.arp 	sentReply:count 	53
attr title  "ARP replies sent, count"
scalar scenarioPRJP1.node[21].networkLayer.arp 	sentReq:count 	435
attr title  "ARP request sent, count"
scalar scenarioPRJP1.node[21].mobility 	startTime 	2.5
scalar scenarioPRJP1.node[21].mobility 	totalTime 	947.5
scalar scenarioPRJP1.node[21].mobility 	stopTime 	950
scalar scenarioPRJP1.node[21].mobility 	minSpeed 	2.4755298771724e-13
scalar scenarioPRJP1.node[21].mobility 	maxSpeed 	17.436180349351
scalar scenarioPRJP1.node[21].mobility 	totalDistance 	8414.9919405318
scalar scenarioPRJP1.node[21].mobility 	totalCO2Emission 	2429.8377528186
scalar scenarioPRJP1.node[21].wlan.mgmt 	dataQueueLen:max 	15
attr interpolationmode  sample-hold
attr title  "data queue length, max"
scalar scenarioPRJP1.node[21].wlan.mgmt 	dataQueueLen:timeavg 	0.0019661713011736
attr interpolationmode  sample-hold
attr title  "data queue length, timeavg"
scalar scenarioPRJP1.node[21].wlan.mgmt 	dropPkByQueue:count 	0
attr interpolationmode  none
attr source  dropPkByQueue
attr title  "packets dropped by queue, count"
scalar scenarioPRJP1.node[21].wlan.mgmt 	dropPkByQueue:sum(packetBytes) 	0
attr interpolationmode  none
attr source  dropPkByQueue
attr title  "packets dropped by queue, sum(packetBytes)"
scalar scenarioPRJP1.node[21].wlan.mac 	"number of received packets" 	11855
scalar scenarioPRJP1.node[21].wlan.mac 	"number of collisions" 	75451
scalar scenarioPRJP1.node[21].wlan.mac 	"number of internal collisions" 	0
scalar scenarioPRJP1.node[21].wlan.mac 	"number of retry for AC 0" 	27862
scalar scenarioPRJP1.node[21].wlan.mac 	"number of retry for AC 1" 	0
scalar scenarioPRJP1.node[21].wlan.mac 	"number of retry for AC 2" 	0
scalar scenarioPRJP1.node[21].wlan.mac 	"number of retry for AC 3" 	0
scalar scenarioPRJP1.node[21].wlan.mac 	"sent and received bits" 	20353376
scalar scenarioPRJP1.node[21].wlan.mac 	"sent packet within AC 0" 	5118
scalar scenarioPRJP1.node[21].wlan.mac 	"sent packet within AC 1" 	0
scalar scenarioPRJP1.node[21].wlan.mac 	"sent packet within AC 2" 	0
scalar scenarioPRJP1.node[21].wlan.mac 	"sent packet within AC 3" 	0
scalar scenarioPRJP1.node[21].wlan.mac 	"sent in TXOP " 	0
scalar scenarioPRJP1.node[21].wlan.mac 	"sentWithoutRetry AC 0" 	4585
scalar scenarioPRJP1.node[21].wlan.mac 	"sentWithoutRetry AC 1" 	0
scalar scenarioPRJP1.node[21].wlan.mac 	"sentWithoutRetry AC 2" 	0
scalar scenarioPRJP1.node[21].wlan.mac 	"sentWithoutRetry AC 3" 	0
scalar scenarioPRJP1.node[21].wlan.mac 	"numGivenUp AC 0" 	4447
scalar scenarioPRJP1.node[21].wlan.mac 	"numGivenUp AC 1" 	0
scalar scenarioPRJP1.node[21].wlan.mac 	"numGivenUp AC 2" 	0
scalar scenarioPRJP1.node[21].wlan.mac 	"numGivenUp AC 3" 	0
scalar scenarioPRJP1.node[21].wlan.mac 	"numDropped AC 0" 	55
scalar scenarioPRJP1.node[21].wlan.mac 	"numDropped AC 1" 	0
scalar scenarioPRJP1.node[21].wlan.mac 	"numDropped AC 2" 	0
scalar scenarioPRJP1.node[21].wlan.mac 	"numDropped AC 3" 	0
scalar scenarioPRJP1.node[21].wlan.mac 	rcvdPkFromLL:count 	315798
attr interpolationmode  none
attr source  packetReceivedFromLower
attr title  "packets received from lower layer, count"
scalar scenarioPRJP1.node[21].wlan.mac 	rcvdPkFromLL:sum(packetBytes) 	76248892
attr interpolationmode  none
attr source  packetReceivedFromLower
attr title  "packets received from lower layer, sum(packetBytes)"
scalar scenarioPRJP1.node[21].wlan.mac 	sentDownPk:count 	63847
attr interpolationmode  none
attr source  packetSentToLower
attr title  "packets sent to lower layer, count"
scalar scenarioPRJP1.node[21].wlan.mac 	sentDownPk:sum(packetBytes) 	14714794
attr interpolationmode  none
attr source  packetSentToLower
attr title  "packets sent to lower layer, sum(packetBytes)"
scalar scenarioPRJP1.node[21].wlan.mac 	rcvdPkFromHL:count 	24187
attr interpolationmode  none
attr source  packetReceivedFromUpper
attr title  "packets received from higher layer, count"
scalar scenarioPRJP1.node[21].wlan.mac 	rcvdPkFromHL:sum(packetBytes) 	4200140
attr interpolationmode  none
attr source  packetReceivedFromUpper
attr title  "packets received from higher layer, sum(packetBytes)"
scalar scenarioPRJP1.node[21].wlan.mac 	passedUpPk:count 	50883
attr interpolationmode  none
attr source  packetSentToUpper
attr title  "packets passed to higher layer, count"
scalar scenarioPRJP1.node[21].wlan.mac 	passedUpPk:sum(packetBytes) 	5017148
attr interpolationmode  none
attr source  packetSentToUpper
attr title  "packets passed to higher layer, sum(packetBytes)"
statistic scenarioPRJP1.node[21].wlan.radio 	radioChannel:histogram
field count 1
field mean 3
field stddev -nan
field sum 3
field sqrsum 9
field min 3
field max 3
attr interpolationmode  sample-hold
attr source  radioChannelChanged
attr title  "Radio channel, histogram"
bin	-INF	0
bin	2	0
bin	3	1
bin	4	0
scalar scenarioPRJP1.node[21].wlan.radio 	transmissionState:count 	255388
attr interpolationmode  sample-hold
attr source  transmissionStateChanged
attr title  "Radio transmission state, count"
scalar scenarioPRJP1.node[21].wlan.radio 	receptionState:count 	782518
attr interpolationmode  sample-hold
attr source  receptionStateChanged
attr title  "Radio reception state, count"
scalar scenarioPRJP1.node[21].wlan.radio 	radioMode:count 	127696
attr interpolationmode  sample-hold
attr source  radioModeChanged
attr title  "Radio mode, count"
statistic scenarioPRJP1.node[21].wlan.radio 	symbolErrorRate:histogram
field count 0
field mean -nan
field stddev -nan
field sum 0
field sqrsum 0
field min -nan
field max -nan
attr source  symbolErrorRate
attr title  "Symbol error rate, histogram"
bin	-INF	0
bin	-0.5	0
bin	-0.46666666666667	0
bin	-0.43333333333333	0
bin	-0.4	0
bin	-0.36666666666667	0
bin	-0.33333333333333	0
bin	-0.3	0
bin	-0.26666666666667	0
bin	-0.23333333333333	0
bin	-0.2	0
bin	-0.16666666666667	0
bin	-0.13333333333333	0
bin	-0.1	0
bin	-0.066666666666667	0
bin	-0.033333333333333	0
bin	0	0
bin	0.033333333333333	0
bin	0.066666666666667	0
bin	0.1	0
bin	0.13333333333333	0
bin	0.16666666666667	0
bin	0.2	0
bin	0.23333333333333	0
bin	0.26666666666667	0
bin	0.3	0
bin	0.33333333333333	0
bin	0.36666666666667	0
bin	0.4	0
bin	0.43333333333333	0
bin	0.46666666666667	0
bin	0.5	0
statistic scenarioPRJP1.node[21].wlan.radio 	bitErrorRate:histogram
field count 0
field mean -nan
field stddev -nan
field sum 0
field sqrsum 0
field min -nan
field max -nan
attr source  bitErrorRate
attr title  "Bit error rate, histogram"
bin	-INF	0
bin	-0.5	0
bin	-0.46666666666667	0
bin	-0.43333333333333	0
bin	-0.4	0
bin	-0.36666666666667	0
bin	-0.33333333333333	0
bin	-0.3	0
bin	-0.26666666666667	0
bin	-0.23333333333333	0
bin	-0.2	0
bin	-0.16666666666667	0
bin	-0.13333333333333	0
bin	-0.1	0
bin	-0.066666666666667	0
bin	-0.033333333333333	0
bin	0	0
bin	0.033333333333333	0
bin	0.066666666666667	0
bin	0.1	0
bin	0.13333333333333	0
bin	0.16666666666667	0
bin	0.2	0
bin	0.23333333333333	0
bin	0.26666666666667	0
bin	0.3	0
bin	0.33333333333333	0
bin	0.36666666666667	0
bin	0.4	0
bin	0.43333333333333	0
bin	0.46666666666667	0
bin	0.5	0
statistic scenarioPRJP1.node[21].wlan.radio 	packetErrorRate:histogram
field count 315798
field mean 0.22187438139587
field stddev 0.40620587929288
field sum 70067.485896054
field sqrsum 67653.700809811
field min 0
field max 1
attr source  packetErrorRate
attr title  "Packet error rate, histogram"
bin	-INF	0
bin	-0.5	0
bin	-0.43333333333333	0
bin	-0.36666666666667	0
bin	-0.3	0
bin	-0.23333333333333	0
bin	-0.16666666666667	0
bin	-0.1	0
bin	-0.033333333333333	235811
bin	0.033333333333333	4053
bin	0.1	2016
bin	0.16666666666667	1290
bin	0.23333333333333	1002
bin	0.3	880
bin	0.36666666666667	768
bin	0.43333333333333	669
bin	0.5	653
bin	0.56666666666667	645
bin	0.63333333333333	638
bin	0.7	667
bin	0.76666666666667	685
bin	0.83333333333333	857
bin	0.9	1229
bin	0.96666666666667	63935
bin	1.0333333333333	0
bin	1.1	0
bin	1.1666666666667	0
bin	1.2333333333333	0
bin	1.3	0
bin	1.3666666666667	0
bin	1.4333333333333	0
bin	1.5	0
statistic scenarioPRJP1.node[21].wlan.radio 	minSNIR:histogram
field count 315798
field mean 2577.2541999245
field stddev 29091.83452348
field sum 813891721.82777
field sqrsum 2.693676080442e+14
field min 0.00016825182984507
field max 753239.71923443
attr source  minSNIR
attr title  "Min SNIR, histogram"
bin	-INF	0
bin	-23.219237414754	0
bin	-19.941731137378	0
bin	-16.664224860001	0
bin	-13.386718582625	0
bin	-10.109212305248	0
bin	-6.8317060278713	0
bin	-3.5541997504947	0
bin	-0.27669347311806	67994
bin	3.0008128042586	45734
bin	6.2783190816352	24212
bin	9.5558253590118	15292
bin	12.833331636388	10592
bin	16.110837913765	7910
bin	19.388344191142	6130
bin	22.665850468518	4856
bin	25.943356745895	3977
bin	29.220863023272	3550
bin	32.498369300648	3064
bin	35.775875578025	2608
bin	39.053381855401	2354
bin	42.330888132778	2112
bin	45.608394410155	1823
bin	48.885900687531	1661
bin	52.163406964908	1526
bin	55.440913242285	1413
bin	58.718419519661	1356
bin	61.995925797038	1276
bin	65.273432074414	1219
bin	68.550938351791	1142
bin	71.828444629168	1118
bin	75.105950906544	102879
scalar scenarioPRJP1.node[21].lo0.lo 	droppedPkBitError:count 	0
attr interpolationmode  none
attr source  dropPkBitError
attr title  "packets dropped/bit error, count"
scalar scenarioPRJP1.node[21].lo0.lo 	droppedPkBitError:sum(packetBytes) 	0
attr interpolationmode  none
attr source  dropPkBitError
attr title  "packets dropped/bit error, sum(packetBytes)"
scalar scenarioPRJP1.node[21].lo0.lo 	rcvdPkFromHL:count 	158
attr interpolationmode  none
attr source  packetReceivedFromUpper
attr title  "packets received from higher layer, count"
scalar scenarioPRJP1.node[21].lo0.lo 	rcvdPkFromHL:sum(packetBytes) 	82160
attr interpolationmode  none
attr source  packetReceivedFromUpper
attr title  "packets received from higher layer, sum(packetBytes)"
scalar scenarioPRJP1.node[21].lo0.lo 	passedUpPk:count 	158
attr interpolationmode  none
attr source  packetSentToUpper
attr title  "packets passed to higher layer, count"
scalar scenarioPRJP1.node[21].lo0.lo 	passedUpPk:sum(packetBytes) 	82160
attr interpolationmode  none
attr source  packetSentToUpper
attr title  "packets passed to higher layer, sum(packetBytes)"
scalar scenarioPRJP1.node[43].app 	"Total sent" 	2601
scalar scenarioPRJP1.node[43].app 	"Total received" 	137
scalar scenarioPRJP1.node[43].app 	"Total deleted" 	13
scalar scenarioPRJP1.node[43].app 	dropPk:count 	13
attr interpolationmode  none
attr source  dropPk
attr title  "packets dropped, count"
scalar scenarioPRJP1.node[43].app 	dropPk:sum(packetBytes) 	6656
attr interpolationmode  none
attr source  dropPk
attr title  "packets dropped, sum(packetBytes)"
scalar scenarioPRJP1.node[43].app 	outOfOrderPk:count 	12
attr interpolationmode  none
attr source  outOfOrderPk
attr title  "packets received out of order, count"
scalar scenarioPRJP1.node[43].app 	outOfOrderPk:sum(packetBytes) 	6144
attr interpolationmode  none
attr source  outOfOrderPk
attr title  "packets received out of order, sum(packetBytes)"
scalar scenarioPRJP1.node[43].app 	rcvdPk:count 	137
attr interpolationmode  none
attr source  rcvdPk
attr title  "packets received, count"
scalar scenarioPRJP1.node[43].app 	rcvdPk:sum(packetBytes) 	70144
attr interpolationmode  none
attr source  rcvdPk
attr title  "packets received, sum(packetBytes)"
statistic scenarioPRJP1.node[43].app 	endToEndDelay:histogram
field count 137
field mean 2.0570435641253
field stddev 4.1516447016856
field sum 281.81496828517
field sqrsum 2923.8225739338
field min 0.000964011007
field max 17.479935576891
attr interpolationmode  none
attr source  messageAge(rcvdPk)
attr title  "delay, histogram"
attr unit  s
bin	-INF	0
bin	-8.738521771935	0
bin	-7.5732570008761	0
bin	-6.4079922298171	0
bin	-5.2427274587582	0
bin	-4.0774626876993	0
bin	-2.9121979166403	0
bin	-1.7469331455814	0
bin	-0.58166837452247	91
bin	0.58359639653647	16
bin	1.7488611675954	3
bin	2.9141259386543	4
bin	4.0793907097133	4
bin	5.2446554807722	2
bin	6.4099202518311	1
bin	7.5751850228901	4
bin	8.740449793949	0
bin	9.9057145650079	2
bin	11.070979336067	2
bin	12.236244107126	3
bin	13.401508878185	1
bin	14.566773649244	0
bin	15.732038420303	1
bin	16.897303191362	3
bin	18.06256796242	0
bin	19.227832733479	0
bin	20.393097504538	0
bin	21.558362275597	0
bin	22.723627046656	0
bin	23.888891817715	0
bin	25.054156588774	0
bin	26.219421359833	0
scalar scenarioPRJP1.node[43].app 	sentPk:count 	2601
attr interpolationmode  none
attr source  sentPk
attr title  "packets sent, count"
scalar scenarioPRJP1.node[43].app 	sentPk:sum(packetBytes) 	1331712
attr interpolationmode  none
attr source  sentPk
attr title  "packets sent, sum(packetBytes)"
scalar scenarioPRJP1.node[43].udp 	droppedPkBadChecksum:count 	0
attr interpolationmode  none
attr title  "packets dropped (checksum error), count"
scalar scenarioPRJP1.node[43].udp 	droppedPkWrongPort:count 	0
attr interpolationmode  none
attr title  "packets dropped (wrong port), count"
scalar scenarioPRJP1.node[43].udp 	passedUpPk:count 	162
attr interpolationmode  none
attr title  "packets passed up, count"
scalar scenarioPRJP1.node[43].udp 	rcvdPk:count 	162
attr interpolationmode  none
attr source  rcvdPk
attr title  "packets received, count"
scalar scenarioPRJP1.node[43].udp 	rcvdPk:sum(packetBytes) 	84240
attr interpolationmode  none
attr source  rcvdPk
attr title  "packets received, sum(packetBytes)"
scalar scenarioPRJP1.node[43].udp 	sentPk:count 	2601
attr interpolationmode  none
attr source  sentPk
attr title  "packets sent, count"
scalar scenarioPRJP1.node[43].udp 	sentPk:sum(packetBytes) 	1352520
attr interpolationmode  none
attr source  sentPk
attr title  "packets sent, sum(packetBytes)"
scalar scenarioPRJP1.node[43].networkLayer.arp 	failedARPResolution:count 	12
attr title  "ARP failed resolutions, count"
scalar scenarioPRJP1.node[43].networkLayer.arp 	completedARPResolution:count 	981
attr title  "ARP completed resolutions, count"
scalar scenarioPRJP1.node[43].networkLayer.arp 	initiatedARPResolution:count 	68
attr title  "ARP initiated resolutions, count"
scalar scenarioPRJP1.node[43].networkLayer.arp 	sentReply:count 	47
attr title  "ARP replies sent, count"
scalar scenarioPRJP1.node[43].networkLayer.arp 	sentReq:count 	124
attr title  "ARP request sent, count"
scalar scenarioPRJP1.node[43].mobility 	startTime 	4.9
scalar scenarioPRJP1.node[43].mobility 	totalTime 	945.1
scalar scenarioPRJP1.node[43].mobility 	stopTime 	950
scalar scenarioPRJP1.node[43].mobility 	minSpeed 	2.4756891710526e-13
scalar scenarioPRJP1.node[43].mobility 	maxSpeed 	13.400860948825
scalar scenarioPRJP1.node[43].mobility 	totalDistance 	7320.6899415273
scalar scenarioPRJP1.node[43].mobility 	totalCO2Emission 	1943.3526590711
scalar scenarioPRJP1.node[43].wlan.mgmt 	dataQueueLen:max 	9
attr interpolationmode  sample-hold
attr title  "data queue length, max"
scalar scenarioPRJP1.node[43].wlan.mgmt 	dataQueueLen:timeavg 	0
attr interpolationmode  sample-hold
attr title  "data queue length, timeavg"
scalar scenarioPRJP1.node[43].wlan.mgmt 	dropPkByQueue:count 	0
attr interpolationmode  none
attr source  dropPkByQueue
attr title  "packets dropped by queue, count"
scalar scenarioPRJP1.node[43].wlan.mgmt 	dropPkByQueue:sum(packetBytes) 	0
attr interpolationmode  none
attr source  dropPkByQueue
attr title  "packets dropped by queue, sum(packetBytes)"
scalar scenarioPRJP1.node[43].wlan.mac 	"number of received packets" 	12644
scalar scenarioPRJP1.node[43].wlan.mac 	"number of collisions" 	61520
scalar scenarioPRJP1.node[43].wlan.mac 	"number of internal collisions" 	0
scalar scenarioPRJP1.node[43].wlan.mac 	"number of retry for AC 0" 	26573
scalar scenarioPRJP1.node[43].wlan.mac 	"number of retry for AC 1" 	0
scalar scenarioPRJP1.node[43].wlan.mac 	"number of retry for AC 2" 	0
scalar scenarioPRJP1.node[43].wlan.mac 	"number of retry for AC 3" 	0
scalar scenarioPRJP1.node[43].wlan.mac 	"sent and received bits" 	18242368
scalar scenarioPRJP1.node[43].wlan.mac 	"sent packet within AC 0" 	3906
scalar scenarioPRJP1.node[43].wlan.mac 	"sent packet within AC 1" 	0
scalar scenarioPRJP1.node[43].wlan.mac 	"sent packet within AC 2" 	0
scalar scenarioPRJP1.node[43].wlan.mac 	"sent packet within AC 3" 	0
scalar scenarioPRJP1.node[43].wlan.mac 	"sent in TXOP " 	0
scalar scenarioPRJP1.node[43].wlan.mac 	"sentWithoutRetry AC 0" 	3381
scalar scenarioPRJP1.node[43].wlan.mac 	"sentWithoutRetry AC 1" 	0
scalar scenarioPRJP1.node[43].wlan.mac 	"sentWithoutRetry AC 2" 	0
scalar scenarioPRJP1.node[43].wlan.mac 	"sentWithoutRetry AC 3" 	0
scalar scenarioPRJP1.node[43].wlan.mac 	"numGivenUp AC 0" 	4222
scalar scenarioPRJP1.node[43].wlan.mac 	"numGivenUp AC 1" 	0
scalar scenarioPRJP1.node[43].wlan.mac 	"numGivenUp AC 2" 	0
scalar scenarioPRJP1.node[43].wlan.mac 	"numGivenUp AC 3" 	0
scalar scenarioPRJP1.node[43].wlan.mac 	"numDropped AC 0" 	0
scalar scenarioPRJP1.node[43].wlan.mac 	"numDropped AC 1" 	0
scalar scenarioPRJP1.node[43].wlan.mac 	"numDropped AC 2" 	0
scalar scenarioPRJP1.node[43].wlan.mac 	"numDropped AC 3" 	0
scalar scenarioPRJP1.node[43].wlan.mac 	rcvdPkFromLL:count 	264289
attr interpolationmode  none
attr source  packetReceivedFromLower
attr title  "packets received from lower layer, count"
scalar scenarioPRJP1.node[43].wlan.mac 	rcvdPkFromLL:sum(packetBytes) 	63576260
attr interpolationmode  none
attr source  packetReceivedFromLower
attr title  "packets received from lower layer, sum(packetBytes)"
scalar scenarioPRJP1.node[43].wlan.mac 	sentDownPk:count 	61073
attr interpolationmode  none
attr source  packetSentToLower
attr title  "packets sent to lower layer, count"
scalar scenarioPRJP1.node[43].wlan.mac 	sentDownPk:sum(packetBytes) 	13476148
attr interpolationmode  none
attr source  packetSentToLower
attr title  "packets sent to lower layer, sum(packetBytes)"
scalar scenarioPRJP1.node[43].wlan.mac 	rcvdPkFromHL:count 	21856
attr interpolationmode  none
attr source  packetReceivedFromUpper
attr title  "packets received from higher layer, count"
scalar scenarioPRJP1.node[43].wlan.mac 	rcvdPkFromHL:sum(packetBytes) 	3771096
attr interpolationmode  none
attr source  packetReceivedFromUpper
attr title  "packets received from higher layer, sum(packetBytes)"
scalar scenarioPRJP1.node[43].wlan.mac 	passedUpPk:count 	41260
attr interpolationmode  none
attr source  packetSentToUpper
attr title  "packets passed to higher layer, count"
scalar scenarioPRJP1.node[43].wlan.mac 	passedUpPk:sum(packetBytes) 	4019540
attr interpolationmode  none
attr source  packetSentToUpper
attr title  "packets passed to higher layer, sum(packetBytes)"
statistic scenarioPRJP1.node[43].wlan.radio 	radioChannel:histogram
field count 1
field mean 3
field stddev -nan
field sum 3
field sqrsum 9
field min 3
field max 3
attr interpolationmode  sample-hold
attr source  radioChannelChanged
attr title  "Radio channel, histogram"
bin	-INF	0
bin	2	0
bin	3	1
bin	4	0
scalar scenarioPRJP1.node[43].wlan.radio 	transmissionState:count 	244292
attr interpolationmode  sample-hold
attr source  transmissionStateChanged
attr title  "Radio transmission state, count"
scalar scenarioPRJP1.node[43].wlan.radio 	receptionState:count 	666825
attr interpolationmode  sample-hold
attr source  receptionStateChanged
attr title  "Radio reception state, count"
scalar scenarioPRJP1.node[43].wlan.radio 	radioMode:count 	122148
attr interpolationmode  sample-hold
attr source  radioModeChanged
attr title  "Radio mode, count"
statistic scenarioPRJP1.node[43].wlan.radio 	symbolErrorRate:histogram
field count 0
field mean -nan
field stddev -nan
field sum 0
field sqrsum 0
field min -nan
field max -nan
attr source  symbolErrorRate
attr title  "Symbol error rate, histogram"
bin	-INF	0
bin	-0.5	0
bin	-0.46666666666667	0
bin	-0.43333333333333	0
bin	-0.4	0
bin	-0.36666666666667	0
bin	-0.33333333333333	0
bin	-0.3	0
bin	-0.26666666666667	0
bin	-0.23333333333333	0
bin	-0.2	0
bin	-0.16666666666667	0
bin	-0.13333333333333	0
bin	-0.1	0
bin	-0.066666666666667	0
bin	-0.033333333333333	0
bin	0	0
bin	0.033333333333333	0
bin	0.066666666666667	0
bin	0.1	0
bin	0.13333333333333	0
bin	0.16666666666667	0
bin	0.2	0
bin	0.23333333333333	0
bin	0.26666666666667	0
bin	0.3	0
bin	0.33333333333333	0
bin	0.36666666666667	0
bin	0.4	0
bin	0.43333333333333	0
bin	0.46666666666667	0
bin	0.5	0
statistic scenarioPRJP1.node[43].wlan.radio 	bitErrorRate:histogram
field count 0
field mean -nan
field stddev -nan
field sum 0
field sqrsum 0
field min -nan
field max -nan
attr source  bitErrorRate
attr title  "Bit error rate, histogram"
bin	-INF	0
bin	-0.5	0
bin	-0.46666666666667	0
bin	-0.43333333333333	0
bin	-0.4	0
bin	-0.36666666666667	0
bin	-0.33333333333333	0
bin	-0.3	0
bin	-0.26666666666667	0
bin	-0.23333333333333	0
bin	-0.2	0
bin	-0.16666666666667	0
bin	-0.13333333333333	0
bin	-0.1	0
bin	-0.066666666666667	0
bin	-0.033333333333333	0
bin	0	0
bin	0.033333333333333	0
bin	0.066666666666667	0
bin	0.1	0
bin	0.13333333333333	0
bin	0.16666666666667	0
bin	0.2	0
bin	0.23333333333333	0
bin	0.26666666666667	0
bin	0.3	0
bin	0.33333333333333	0
bin	0.36666666666667	0
bin	0.4	0
bin	0.43333333333333	0
bin	0.46666666666667	0
bin	0.5	0
statistic scenarioPRJP1.node[43].wlan.radio 	packetErrorRate:histogram
field count 264289
field mean 0.21544807319141
field stddev 0.40105150576611
field sum 56940.555815686
field sqrsum 54776.425535494
field min 0
field max 1
attr source  packetErrorRate
attr title  "Packet error rate, histogram"
bin	-INF	0
bin	-0.5	0
bin	-0.43333333333333	0
bin	-0.36666666666667	0
bin	-0.3	0
bin	-0.23333333333333	0
bin	-0.16666666666667	0
bin	-0.1	0
bin	-0.033333333333333	198329
bin	0.033333333333333	3713
bin	0.1	1854
bin	0.16666666666667	1183
bin	0.23333333333333	949
bin	0.3	779
bin	0.36666666666667	652
bin	0.43333333333333	623
bin	0.5	562
bin	0.56666666666667	531
bin	0.63333333333333	585
bin	0.7	569
bin	0.76666666666667	639
bin	0.83333333333333	750
bin	0.9	1079
bin	0.96666666666667	51492
bin	1.0333333333333	0
bin	1.1	0
bin	1.1666666666667	0
bin	1.2333333333333	0
bin	1.3	0
bin	1.3666666666667	0
bin	1.4333333333333	0
bin	1.5	0
statistic scenarioPRJP1.node[43].wlan.radio 	minSNIR:histogram
field count 264289
field mean 1489.0349591745
field stddev 17298.377651226
field sum 393535560.32528
field sqrsum 79669909073589
field min 0.00016891824784492
field max 753239.71923443
attr source  minSNIR
attr title  "Min SNIR, histogram"
bin	-INF	0
bin	-214.12011554791	0
bin	-185.42539909704	0
bin	-156.73068264618	0
bin	-128.03596619532	0
bin	-99.341249744458	0
bin	-70.646533293595	0
bin	-41.951816842733	0
bin	-13.257100391871	142429
bin	15.437616058992	33998
bin	44.132332509854	10185
bin	72.827048960716	5540
bin	101.52176541158	4771
bin	130.21648186244	5860
bin	158.9111983133	4467
bin	187.60591476417	4035
bin	216.30063121503	3166
bin	244.99534766589	2525
bin	273.69006411675	2370
bin	302.38478056761	1966
bin	331.07949701848	1900
bin	359.77421346934	1623
bin	388.4689299202	1444
bin	417.16364637106	1124
bin	445.85836282193	1033
bin	474.55307927279	944
bin	503.24779572365	874
bin	531.94251217451	850
bin	560.63722862538	763
bin	589.33194507624	724
bin	618.0266615271	658
bin	646.72137797796	31040
scalar scenarioPRJP1.node[43].lo0.lo 	droppedPkBitError:count 	0
attr interpolationmode  none
attr source  dropPkBitError
attr title  "packets dropped/bit error, count"
scalar scenarioPRJP1.node[43].lo0.lo 	droppedPkBitError:sum(packetBytes) 	0
attr interpolationmode  none
attr source  dropPkBitError
attr title  "packets dropped/bit error, sum(packetBytes)"
scalar scenarioPRJP1.node[43].lo0.lo 	rcvdPkFromHL:count 	162
attr interpolationmode  none
attr source  packetReceivedFromUpper
attr title  "packets received from higher layer, count"
scalar scenarioPRJP1.node[43].lo0.lo 	rcvdPkFromHL:sum(packetBytes) 	84240
attr interpolationmode  none
attr source  packetReceivedFromUpper
attr title  "packets received from higher layer, sum(packetBytes)"
scalar scenarioPRJP1.node[43].lo0.lo 	passedUpPk:count 	162
attr interpolationmode  none
attr source  packetSentToUpper
attr title  "packets passed to higher layer, count"
scalar scenarioPRJP1.node[43].lo0.lo 	passedUpPk:sum(packetBytes) 	84240
attr interpolationmode  none
attr source  packetSentToUpper
attr title  "packets passed to higher layer, sum(packetBytes)"
scalar scenarioPRJP1.node[62].app 	"Total sent" 	2623
scalar scenarioPRJP1.node[62].app 	"Total received" 	144
scalar scenarioPRJP1.node[62].app 	"Total deleted" 	4
scalar scenarioPRJP1.node[62].app 	dropPk:count 	4
attr interpolationmode  none
attr source  dropPk
attr title  "packets dropped, count"
scalar scenarioPRJP1.node[62].app 	dropPk:sum(packetBytes) 	2048
attr interpolationmode  none
attr source  dropPk
attr title  "packets dropped, sum(packetBytes)"
scalar scenarioPRJP1.node[62].app 	outOfOrderPk:count 	19
attr interpolationmode  none
attr source  outOfOrderPk
attr title  "packets received out of order, count"
scalar scenarioPRJP1.node[62].app 	outOfOrderPk:sum(packetBytes) 	9728
attr interpolationmode  none
attr source  outOfOrderPk
attr title  "packets received out of order, sum(packetBytes)"
scalar scenarioPRJP1.node[62].app 	rcvdPk:count 	144
attr interpolationmode  none
attr source  rcvdPk
attr title  "packets received, count"
scalar scenarioPRJP1.node[62].app 	rcvdPk:sum(packetBytes) 	73728
attr interpolationmode  none
attr source  rcvdPk
attr title  "packets received, sum(packetBytes)"
statistic scenarioPRJP1.node[62].app 	endToEndDelay:histogram
field count 144
field mean 2.7556504253317
field stddev 4.7545354431592
field sum 396.81366124776
field sqrsum 4326.0815754716
field min 0.000964074625
field max 19.436021517079
attr interpolationmode  none
attr source  messageAge(rcvdPk)
attr title  "delay, histogram"
attr unit  s
bin	-INF	0
bin	-9.716564646602	0
bin	-8.4208941504384	0
bin	-7.1252236542748	0
bin	-5.8295531581112	0
bin	-4.5338826619476	0
bin	-3.238212165784	0
bin	-1.9425416696204	0
bin	-0.6468711734568	83
bin	0.6487993227068	18
bin	1.9444698188704	8
bin	3.240140315034	7
bin	4.5358108111976	4
bin	5.8314813073612	2
bin	7.1271518035248	3
bin	8.4228222996884	1
bin	9.718492795852	3
bin	11.014163292016	2
bin	12.309833788179	3
bin	13.605504284343	3
bin	14.901174780506	4
bin	16.19684527667	1
bin	17.492515772834	1
bin	18.788186268997	1
bin	20.083856765161	0
bin	21.379527261324	0
bin	22.675197757488	0
bin	23.970868253652	0
bin	25.266538749815	0
bin	26.562209245979	0
bin	27.857879742142	0
bin	29.153550238306	0
scalar scenarioPRJP1.node[62].app 	sentPk:count 	2623
attr interpolationmode  none
attr source  sentPk
attr title  "packets sent, count"
scalar scenarioPRJP1.node[62].app 	sentPk:sum(packetBytes) 	1342976
attr interpolationmode  none
attr source  sentPk
attr title  "packets sent, sum(packetBytes)"
scalar scenarioPRJP1.node[62].udp 	droppedPkBadChecksum:count 	0
attr interpolationmode  none
attr title  "packets dropped (checksum error), count"
scalar scenarioPRJP1.node[62].udp 	droppedPkWrongPort:count 	0
attr interpolationmode  none
attr title  "packets dropped (wrong port), count"
scalar scenarioPRJP1.node[62].udp 	passedUpPk:count 	167
attr interpolationmode  none
attr title  "packets passed up, count"
scalar scenarioPRJP1.node[62].udp 	rcvdPk:count 	167
attr interpolationmode  none
attr source  rcvdPk
attr title  "packets received, count"
scalar scenarioPRJP1.node[62].udp 	rcvdPk:sum(packetBytes) 	86840
attr interpolationmode  none
attr source  rcvdPk
attr title  "packets received, sum(packetBytes)"
scalar scenarioPRJP1.node[62].udp 	sentPk:count 	2623
attr interpolationmode  none
attr source  sentPk
attr title  "packets sent, count"
scalar scenarioPRJP1.node[62].udp 	sentPk:sum(packetBytes) 	1363960
attr interpolationmode  none
attr source  sentPk
attr title  "packets sent, sum(packetBytes)"
scalar scenarioPRJP1.node[62].networkLayer.arp 	failedARPResolution:count 	30
attr title  "ARP failed resolutions, count"
scalar scenarioPRJP1.node[62].networkLayer.arp 	completedARPResolution:count 	1286
attr title  "ARP completed resolutions, count"
scalar scenarioPRJP1.node[62].networkLayer.arp 	initiatedARPResolution:count 	103
attr title  "ARP initiated resolutions, count"
scalar scenarioPRJP1.node[62].networkLayer.arp 	sentReply:count 	43
attr title  "ARP replies sent, count"
scalar scenarioPRJP1.node[62].networkLayer.arp 	sentReq:count 	200
attr title  "ARP request sent, count"
scalar scenarioPRJP1.node[62].mobility 	startTime 	7.3
scalar scenarioPRJP1.node[62].mobility 	totalTime 	942.7
scalar scenarioPRJP1.node[62].mobility 	stopTime 	950
scalar scenarioPRJP1.node[62].mobility 	minSpeed 	2.4754900589501e-13
scalar scenarioPRJP1.node[62].mobility 	maxSpeed 	17.097933538364
scalar scenarioPRJP1.node[62].mobility 	totalDistance 	9678.1842743109
scalar scenarioPRJP1.node[62].mobility 	totalCO2Emission 	2428.0254168768
scalar scenarioPRJP1.node[62].wlan.mgmt 	dataQueueLen:max 	100
attr interpolationmode  sample-hold
attr title  "data queue length, max"
scalar scenarioPRJP1.node[62].wlan.mgmt 	dataQueueLen:timeavg 	0.3441314458796
attr interpolationmode  sample-hold
attr title  "data queue length, timeavg"
scalar scenarioPRJP1.node[62].wlan.mgmt 	dropPkByQueue:count 	23
attr interpolationmode  none
attr source  dropPkByQueue
attr title  "packets dropped by queue, count"
scalar scenarioPRJP1.node[62].wlan.mgmt 	dropPkByQueue:sum(packetBytes) 	12552
attr interpolationmode  none
attr source  dropPkByQueue
attr title  "packets dropped by queue, sum(packetBytes)"
scalar scenarioPRJP1.node[62].wlan.mac 	"number of received packets" 	12457
scalar scenarioPRJP1.node[62].wlan.mac 	"number of collisions" 	68832
scalar scenarioPRJP1.node[62].wlan.mac 	"number of internal collisions" 	0
scalar scenarioPRJP1.node[62].wlan.mac 	"number of retry for AC 0" 	28706
scalar scenarioPRJP1.node[62].wlan.mac 	"number of retry for AC 1" 	0
scalar scenarioPRJP1.node[62].wlan.mac 	"number of retry for AC 2" 	0
scalar scenarioPRJP1.node[62].wlan.mac 	"number of retry for AC 3" 	0
scalar scenarioPRJP1.node[62].wlan.mac 	"sent and received bits" 	20928160
scalar scenarioPRJP1.node[62].wlan.mac 	"sent packet within AC 0" 	5170
scalar scenarioPRJP1.node[62].wlan.mac 	"sent packet within AC 1" 	0
scalar scenarioPRJP1.node[62].wlan.mac 	"sent packet within AC 2" 	0
scalar scenarioPRJP1.node[62].wlan.mac 	"sent packet within AC 3" 	0
scalar scenarioPRJP1.node[62].wlan.mac 	"sent in TXOP " 	0
scalar scenarioPRJP1.node[62].wlan.mac 	"sentWithoutRetry AC 0" 	4555
scalar scenarioPRJP1.node[62].wlan.mac 	"sentWithoutRetry AC 1" 	0
scalar scenarioPRJP1.node[62].wlan.mac 	"sentWithoutRetry AC 2" 	0
scalar scenarioPRJP1.node[62].wlan.mac 	"sentWithoutRetry AC 3" 	0
scalar scenarioPRJP1.node[62].wlan.mac 	"numGivenUp AC 0" 	4547
scalar scenarioPRJP1.node[62].wlan.mac 	"numGivenUp AC 1" 	0
scalar scenarioPRJP1.node[62].wlan.mac 	"numGivenUp AC 2" 	0
scalar scenarioPRJP1.node[62].wlan.mac 	"numGivenUp AC 3" 	0
scalar scenarioPRJP1.node[62].wlan.mac 	"numDropped AC 0" 	418
scalar scenarioPRJP1.node[62].wlan.mac 	"numDropped AC 1" 	0
scalar scenarioPRJP1.node[62].wlan.mac 	"numDropped AC 2" 	0
scalar scenarioPRJP1.node[62].wlan.mac 	"numDropped AC 3" 	0
scalar scenarioPRJP1.node[62].wlan.mac 	rcvdPkFromLL:count 	292358
attr interpolationmode  none
attr source  packetReceivedFromLower
attr title  "packets received from lower layer, count"
scalar scenarioPRJP1.node[62].wlan.mac 	rcvdPkFromLL:sum(packetBytes) 	70839914
attr interpolationmode  none
attr source  packetReceivedFromLower
attr title  "packets received from lower layer, sum(packetBytes)"
scalar scenarioPRJP1.node[62].wlan.mac 	sentDownPk:count 	64523
attr interpolationmode  none
attr source  packetSentToLower
attr title  "packets sent to lower layer, count"
scalar scenarioPRJP1.node[62].wlan.mac 	sentDownPk:sum(packetBytes) 	15421242
attr interpolationmode  none
attr source  packetSentToLower
attr title  "packets sent to lower layer, sum(packetBytes)"
scalar scenarioPRJP1.node[62].wlan.mac 	rcvdPkFromHL:count 	23778
attr interpolationmode  none
attr source  packetReceivedFromUpper
attr title  "packets received from higher layer, count"
scalar scenarioPRJP1.node[62].wlan.mac 	rcvdPkFromHL:sum(packetBytes) 	4455544
attr interpolationmode  none
attr source  packetReceivedFromUpper
attr title  "packets received from higher layer, sum(packetBytes)"
scalar scenarioPRJP1.node[62].wlan.mac 	passedUpPk:count 	47357
attr interpolationmode  none
attr source  packetSentToUpper
attr title  "packets passed to higher layer, count"
scalar scenarioPRJP1.node[62].wlan.mac 	passedUpPk:sum(packetBytes) 	4761920
attr interpolationmode  none
attr source  packetSentToUpper
attr title  "packets passed to higher layer, sum(packetBytes)"
statistic scenarioPRJP1.node[62].wlan.radio 	radioChannel:histogram
field count 1
field mean 3
field stddev -nan
field sum 3
field sqrsum 9
field min 3
field max 3
attr interpolationmode  sample-hold
attr source  radioChannelChanged
attr title  "Radio channel, histogram"
bin	-INF	0
bin	2	0
bin	3	1
bin	4	0
scalar scenarioPRJP1.node[62].wlan.radio 	transmissionState:count 	258090
attr interpolationmode  sample-hold
attr source  transmissionStateChanged
attr title  "Radio transmission state, count"
scalar scenarioPRJP1.node[62].wlan.radio 	receptionState:count 	735870
attr interpolationmode  sample-hold
attr source  receptionStateChanged
attr title  "Radio reception state, count"
scalar scenarioPRJP1.node[62].wlan.radio 	radioMode:count 	129047
attr interpolationmode  sample-hold
attr source  radioModeChanged
attr title  "Radio mode, count"
statistic scenarioPRJP1.node[62].wlan.radio 	symbolErrorRate:histogram
field count 0
field mean -nan
field stddev -nan
field sum 0
field sqrsum 0
field min -nan
field max -nan
attr source  symbolErrorRate
attr title  "Symbol error rate, histogram"
bin	-INF	0
bin	-0.5	0
bin	-0.46666666666667	0
bin	-0.43333333333333	0
bin	-0.4	0
bin	-0.36666666666667	0
bin	-0.33333333333333	0
bin	-0.3	0
bin	-0.26666666666667	0
bin	-0.23333333333333	0
bin	-0.2	0
bin	-0.16666666666667	0
bin	-0.13333333333333	0
bin	-0.1	0
bin	-0.066666666666667	0
bin	-0.033333333333333	0
bin	0	0
bin	0.033333333333333	0
bin	0.066666666666667	0
bin	0.1	0
bin	0.13333333333333	0
bin	0.16666666666667	0
bin	0.2	0
bin	0.23333333333333	0
bin	0.26666666666667	0
bin	0.3	0
bin	0.33333333333333	0
bin	0.36666666666667	0
bin	0.4	0
bin	0.43333333333333	0
bin	0.46666666666667	0
bin	0.5	0
statistic scenarioPRJP1.node[62].wlan.radio 	bitErrorRate:histogram
field count 0
field mean -nan
field stddev -nan
field sum 0
field sqrsum 0
field min -nan
field max -nan
attr source  bitErrorRate
attr title  "Bit error rate, histogram"
bin	-INF	0
bin	-0.5	0
bin	-0.46666666666667	0
bin	-0.43333333333333	0
bin	-0.4	0
bin	-0.36666666666667	0
bin	-0.33333333333333	0
bin	-0.3	0
bin	-0.26666666666667	0
bin	-0.23333333333333	0
bin	-0.2	0
bin	-0.16666666666667	0
bin	-0.13333333333333	0
bin	-0.1	0
bin	-0.066666666666667	0
bin	-0.033333333333333	0
bin	0	0
bin	0.033333333333333	0
bin	0.066666666666667	0
bin	0.1	0
bin	0.13333333333333	0
bin	0.16666666666667	0
bin	0.2	0
bin	0.23333333333333	0
bin	0.26666666666667	0
bin	0.3	0
bin	0.33333333333333	0
bin	0.36666666666667	0
bin	0.4	0
bin	0.43333333333333	0
bin	0.46666666666667	0
bin	0.5	0
statistic scenarioPRJP1.node[62].wlan.radio 	packetErrorRate:histogram
field count 292358
field mean 0.21940005560644
field stddev 0.40447752204571
field sum 64143.361456986
field sqrsum 61903.2662333
field min 0
field max 1
attr source  packetErrorRate
attr title  "Packet error rate, histogram"
bin	-INF	0
bin	-0.49999999962076	0
bin	-0.43333333300466	0
bin	-0.36666666638856	0
bin	-0.29999999977246	0
bin	-0.23333333315635	0
bin	-0.16666666654025	0
bin	-0.099999999924152	0
bin	-0.033333333308051	219000
bin	0.033333333308051	3813
bin	0.099999999924152	1797
bin	0.16666666654025	1225
bin	0.23333333315635	946
bin	0.29999999977246	802
bin	0.36666666638856	691
bin	0.43333333300466	658
bin	0.49999999962076	599
bin	0.56666666623686	597
bin	0.63333333285296	566
bin	0.69999999946906	632
bin	0.76666666608516	640
bin	0.83333333270126	792
bin	0.89999999931737	1185
bin	0.96666666593347	58415
bin	1.0333333325496	0
bin	1.0999999991657	0
bin	1.1666666657818	0
bin	1.2333333323979	0
bin	1.299999999014	0
bin	1.3666666656301	0
bin	1.4333333322462	0
bin	1.4999999988623	0
statistic scenarioPRJP1.node[62].wlan.radio 	minSNIR:histogram
field count 292358
field mean 2087.109934442
field stddev 24019.909045705
field sum 610183286.21359
field sqrsum 1.6995065382606e+14
field min 0.00016911152159071
field max 753239.71923441
attr source  minSNIR
attr title  "Min SNIR, histogram"
bin	-INF	0
bin	-173.54213857232	0
bin	-150.20850121574	0
bin	-126.87486385916	0
bin	-103.54122650258	0
bin	-80.207589146002	0
bin	-56.873951789421	0
bin	-33.540314432841	0
bin	-10.20667707626	144300
bin	13.12696028032	37066
bin	36.460597636901	12643
bin	59.794234993481	7482
bin	83.127872350062	5276
bin	106.46150970664	4658
bin	129.79514706322	5696
bin	153.1287844198	4689
bin	176.46242177638	4087
bin	199.79605913296	3202
bin	223.12969648954	2977
bin	246.46333384612	2637
bin	269.79697120271	2404
bin	293.13060855929	1940
bin	316.46424591587	1891
bin	339.79788327245	1633
bin	363.13152062903	1492
bin	386.46515798561	1293
bin	409.79879534219	1108
bin	433.13243269877	1041
bin	456.46607005535	932
bin	479.79970741193	962
bin	503.13334476851	760
bin	526.46698212509	42189
scalar scenarioPRJP1.node[62].lo0.lo 	droppedPkBitError:count 	0
attr interpolationmode  none
attr source  dropPkBitError
attr title  "packets dropped/bit error, count"
scalar scenarioPRJP1.node[62].lo0.lo 	droppedPkBitError:sum(packetBytes) 	0
attr interpolationmode  none
attr source  dropPkBitError
attr title  "packets dropped/bit error, sum(packetBytes)"
scalar scenarioPRJP1.node[62].lo0.lo 	rcvdPkFromHL:count 	167
attr interpolationmode  none
attr source  packetReceivedFromUpper
attr title  "packets received from higher layer, count"
scalar scenarioPRJP1.node[62].lo0.lo 	rcvdPkFromHL:sum(packetBytes) 	86840
attr interpolationmode  none
attr source  packetReceivedFromUpper
attr title  "packets received from higher layer, sum(packetBytes)"
scalar scenarioPRJP1.node[62].lo0.lo 	passedUpPk:count 	167
attr interpolationmode  none
attr source  packetSentToUpper
attr title  "packets passed to higher layer, count"
scalar scenarioPRJP1.node[62].lo0.lo 	passedUpPk:sum(packetBytes) 	86840
attr interpolationmode  none
attr source  packetSentToUpper
attr title  "packets passed to higher layer, sum(packetBytes)"
scalar scenarioPRJP1.node[1].app 	"Total sent" 	2626
scalar scenarioPRJP1.node[1].app 	"Total received" 	193
scalar scenarioPRJP1.node[1].app 	"Total deleted" 	6
scalar scenarioPRJP1.node[1].app 	dropPk:count 	6
attr interpolationmode  none
attr source  dropPk
attr title  "packets dropped, count"
scalar scenarioPRJP1.node[1].app 	dropPk:sum(packetBytes) 	3072
attr interpolationmode  none
attr source  dropPk
attr title  "packets dropped, sum(packetBytes)"
scalar scenarioPRJP1.node[1].app 	outOfOrderPk:count 	31
attr interpolationmode  none
attr source  outOfOrderPk
attr title  "packets received out of order, count"
scalar scenarioPRJP1.node[1].app 	outOfOrderPk:sum(packetBytes) 	15872
attr interpolationmode  none
attr source  outOfOrderPk
attr title  "packets received out of order, sum(packetBytes)"
scalar scenarioPRJP1.node[1].app 	rcvdPk:count 	193
attr interpolationmode  none
attr source  rcvdPk
attr title  "packets received, count"
scalar scenarioPRJP1.node[1].app 	rcvdPk:sum(packetBytes) 	98816
attr interpolationmode  none
attr source  rcvdPk
attr title  "packets received, sum(packetBytes)"
statistic scenarioPRJP1.node[1].app 	endToEndDelay:histogram
field count 193
field mean 1.5173820477867
field stddev 3.6825447520401
field sum 292.85473522283
field sqrsum 3048.1106011859
field min 0.001042028727
field max 19.128974745301
attr interpolationmode  none
attr source  messageAge(rcvdPk)
attr title  "delay, histogram"
attr unit  s
bin	-INF	0
bin	-9.5619087912425	0
bin	-8.2867584118406	0
bin	-7.0116080324386	0
bin	-5.7364576530367	0
bin	-4.4613072736348	0
bin	-3.1861568942328	0
bin	-1.9110065148309	0
bin	-0.63585613542897	141
bin	0.63929424397297	20
bin	1.9144446233749	8
bin	3.1895950027768	5
bin	4.4647453821788	3
bin	5.7398957615807	1
bin	7.0150461409826	0
bin	8.2901965203846	0
bin	9.5653468997865	2
bin	10.840497279188	2
bin	12.11564765859	4
bin	13.390798037992	4
bin	14.665948417394	0
bin	15.941098796796	1
bin	17.216249176198	1
bin	18.4913995556	1
bin	19.766549935002	0
bin	21.041700314404	0
bin	22.316850693806	0
bin	23.592001073208	0
bin	24.86715145261	0
bin	26.142301832012	0
bin	27.417452211414	0
bin	28.692602590816	0
scalar scenarioPRJP1.node[1].app 	sentPk:count 	2626
attr interpolationmode  none
attr source  sentPk
attr title  "packets sent, count"
scalar scenarioPRJP1.node[1].app 	sentPk:sum(packetBytes) 	1344512
attr interpolationmode  none
attr source  sentPk
attr title  "packets sent, sum(packetBytes)"
scalar scenarioPRJP1.node[1].udp 	droppedPkBadChecksum:count 	0
attr interpolationmode  none
attr title  "packets dropped (checksum error), count"
scalar scenarioPRJP1.node[1].udp 	droppedPkWrongPort:count 	0
attr interpolationmode  none
attr title  "packets dropped (wrong port), count"
scalar scenarioPRJP1.node[1].udp 	passedUpPk:count 	230
attr interpolationmode  none
attr title  "packets passed up, count"
scalar scenarioPRJP1.node[1].udp 	rcvdPk:count 	230
attr interpolationmode  none
attr source  rcvdPk
attr title  "packets received, count"
scalar scenarioPRJP1.node[1].udp 	rcvdPk:sum(packetBytes) 	119600
attr interpolationmode  none
attr source  rcvdPk
attr title  "packets received, sum(packetBytes)"
scalar scenarioPRJP1.node[1].udp 	sentPk:count 	2626
attr interpolationmode  none
attr source  sentPk
attr title  "packets sent, count"
scalar scenarioPRJP1.node[1].udp 	sentPk:sum(packetBytes) 	1365520
attr interpolationmode  none
attr source  sentPk
attr title  "packets sent, sum(packetBytes)"
scalar scenarioPRJP1.node[1].networkLayer.arp 	failedARPResolution:count 	97
attr title  "ARP failed resolutions, count"
scalar scenarioPRJP1.node[1].networkLayer.arp 	completedARPResolution:count 	1563
attr title  "ARP completed resolutions, count"
scalar scenarioPRJP1.node[1].networkLayer.arp 	initiatedARPResolution:count 	165
attr title  "ARP initiated resolutions, count"
scalar scenarioPRJP1.node[1].networkLayer.arp 	sentReply:count 	48
attr title  "ARP replies sent, count"
scalar scenarioPRJP1.node[1].networkLayer.arp 	sentReq:count 	396
attr title  "ARP request sent, count"
scalar scenarioPRJP1.node[1].mobility 	startTime 	0.1
scalar scenarioPRJP1.node[1].mobility 	totalTime 	949.9
scalar scenarioPRJP1.node[1].mobility 	stopTime 	950
scalar scenarioPRJP1.node[1].mobility 	minSpeed 	2.4754529509821e-13
scalar scenarioPRJP1.node[1].mobility 	maxSpeed 	18.436217565897
scalar scenarioPRJP1.node[1].mobility 	totalDistance 	10000.950746547
scalar scenarioPRJP1.node[1].mobility 	totalCO2Emission 	2727.721506384
scalar scenarioPRJP1.node[1].wlan.mgmt 	dataQueueLen:max 	79
attr interpolationmode  sample-hold
attr title  "data queue length, max"
scalar scenarioPRJP1.node[1].wlan.mgmt 	dataQueueLen:timeavg 	0.33749373748673
attr interpolationmode  sample-hold
attr title  "data queue length, timeavg"
scalar scenarioPRJP1.node[1].wlan.mgmt 	dropPkByQueue:count 	0
attr interpolationmode  none
attr source  dropPkByQueue
attr title  "packets dropped by queue, count"
scalar scenarioPRJP1.node[1].wlan.mgmt 	dropPkByQueue:sum(packetBytes) 	0
attr interpolationmode  none
attr source  dropPkByQueue
attr title  "packets dropped by queue, sum(packetBytes)"
scalar scenarioPRJP1.node[1].wlan.mac 	"number of received packets" 	13536
scalar scenarioPRJP1.node[1].wlan.mac 	"number of collisions" 	73853
scalar scenarioPRJP1.node[1].wlan.mac 	"number of internal collisions" 	0
scalar scenarioPRJP1.node[1].wlan.mac 	"number of retry for AC 0" 	30926
scalar scenarioPRJP1.node[1].wlan.mac 	"number of retry for AC 1" 	0
scalar scenarioPRJP1.node[1].wlan.mac 	"number of retry for AC 2" 	0
scalar scenarioPRJP1.node[1].wlan.mac 	"number of retry for AC 3" 	0
scalar scenarioPRJP1.node[1].wlan.mac 	"sent and received bits" 	24611296
scalar scenarioPRJP1.node[1].wlan.mac 	"sent packet within AC 0" 	7016
scalar scenarioPRJP1.node[1].wlan.mac 	"sent packet within AC 1" 	0
scalar scenarioPRJP1.node[1].wlan.mac 	"sent packet within AC 2" 	0
scalar scenarioPRJP1.node[1].wlan.mac 	"sent packet within AC 3" 	0
scalar scenarioPRJP1.node[1].wlan.mac 	"sent in TXOP " 	0
scalar scenarioPRJP1.node[1].wlan.mac 	"sentWithoutRetry AC 0" 	6333
scalar scenarioPRJP1.node[1].wlan.mac 	"sentWithoutRetry AC 1" 	0
scalar scenarioPRJP1.node[1].wlan.mac 	"sentWithoutRetry AC 2" 	0
scalar scenarioPRJP1.node[1].wlan.mac 	"sentWithoutRetry AC 3" 	0
scalar scenarioPRJP1.node[1].wlan.mac 	"numGivenUp AC 0" 	4935
scalar scenarioPRJP1.node[1].wlan.mac 	"numGivenUp AC 1" 	0
scalar scenarioPRJP1.node[1].wlan.mac 	"numGivenUp AC 2" 	0
scalar scenarioPRJP1.node[1].wlan.mac 	"numGivenUp AC 3" 	0
scalar scenarioPRJP1.node[1].wlan.mac 	"numDropped AC 0" 	376
scalar scenarioPRJP1.node[1].wlan.mac 	"numDropped AC 1" 	0
scalar scenarioPRJP1.node[1].wlan.mac 	"numDropped AC 2" 	0
scalar scenarioPRJP1.node[1].wlan.mac 	"numDropped AC 3" 	0
scalar scenarioPRJP1.node[1].wlan.mac 	rcvdPkFromLL:count 	396758
attr interpolationmode  none
attr source  packetReceivedFromLower
attr title  "packets received from lower layer, count"
scalar scenarioPRJP1.node[1].wlan.mac 	rcvdPkFromLL:sum(packetBytes) 	95328002
attr interpolationmode  none
attr source  packetReceivedFromLower
attr title  "packets received from lower layer, sum(packetBytes)"
scalar scenarioPRJP1.node[1].wlan.mac 	sentDownPk:count 	71256
attr interpolationmode  none
attr source  packetSentToLower
attr title  "packets sent to lower layer, count"
scalar scenarioPRJP1.node[1].wlan.mac 	sentDownPk:sum(packetBytes) 	16986644
attr interpolationmode  none
attr source  packetSentToLower
attr title  "packets sent to lower layer, sum(packetBytes)"
scalar scenarioPRJP1.node[1].wlan.mac 	rcvdPkFromHL:count 	27170
attr interpolationmode  none
attr source  packetReceivedFromUpper
attr title  "packets received from higher layer, count"
scalar scenarioPRJP1.node[1].wlan.mac 	rcvdPkFromHL:sum(packetBytes) 	5015208
attr interpolationmode  none
attr source  packetReceivedFromUpper
attr title  "packets received from higher layer, sum(packetBytes)"
scalar scenarioPRJP1.node[1].wlan.mac 	passedUpPk:count 	68851
attr interpolationmode  none
attr source  packetSentToUpper
attr title  "packets passed to higher layer, count"
scalar scenarioPRJP1.node[1].wlan.mac 	passedUpPk:sum(packetBytes) 	6652816
attr interpolationmode  none
attr source  packetSentToUpper
attr title  "packets passed to higher layer, sum(packetBytes)"
statistic scenarioPRJP1.node[1].wlan.radio 	radioChannel:histogram
field count 1
field mean 3
field stddev -nan
field sum 3
field sqrsum 9
field min 3
field max 3
attr interpolationmode  sample-hold
attr source  radioChannelChanged
attr title  "Radio channel, histogram"
bin	-INF	0
bin	2	0
bin	3	1
bin	4	0
scalar scenarioPRJP1.node[1].wlan.radio 	transmissionState:count 	285024
attr interpolationmode  sample-hold
attr source  transmissionStateChanged
attr title  "Radio transmission state, count"
scalar scenarioPRJP1.node[1].wlan.radio 	receptionState:count 	958622
attr interpolationmode  sample-hold
attr source  receptionStateChanged
attr title  "Radio reception state, count"
scalar scenarioPRJP1.node[1].wlan.radio 	radioMode:count 	142514
attr interpolationmode  sample-hold
attr source  radioModeChanged
attr title  "Radio mode, count"
statistic scenarioPRJP1.node[1].wlan.radio 	symbolErrorRate:histogram
field count 0
field mean -nan
field stddev -nan
field sum 0
field sqrsum 0
field min -nan
field max -nan
attr source  symbolErrorRate
attr title  "Symbol error rate, histogram"
bin	-INF	0
bin	-0.5	0
bin	-0.46666666666667	0
bin	-0.43333333333333	0
bin	-0.4	0
bin	-0.36666666666667	0
bin	-0.33333333333333	0
bin	-0.3	0
bin	-0.26666666666667	0
bin	-0.23333333333333	0
bin	-0.2	0
bin	-0.16666666666667	0
bin	-0.13333333333333	0
bin	-0.1	0
bin	-0.066666666666667	0
bin	-0.033333333333333	0
bin	0	0
bin	0.033333333333333	0
bin	0.066666666666667	0
bin	0.1	0
bin	0.13333333333333	0
bin	0.16666666666667	0
bin	0.2	0
bin	0.23333333333333	0
bin	0.26666666666667	0
bin	0.3	0
bin	0.33333333333333	0
bin	0.36666666666667	0
bin	0.4	0
bin	0.43333333333333	0
bin	0.46666666666667	0
bin	0.5	0
statistic scenarioPRJP1.node[1].wlan.radio 	bitErrorRate:histogram
field count 0
field mean -nan
field stddev -nan
field sum 0
field sqrsum 0
field min -nan
field max -nan
attr source  bitErrorRate
attr title  "Bit error rate, histogram"
bin	-INF	0
bin	-0.5	0
bin	-0.46666666666667	0
bin	-0.43333333333333	0
bin	-0.4	0
bin	-0.36666666666667	0
bin	-0.33333333333333	0
bin	-0.3	0
bin	-0.26666666666667	0
bin	-0.23333333333333	0
bin	-0.2	0
bin	-0.16666666666667	0
bin	-0.13333333333333	0
bin	-0.1	0
bin	-0.066666666666667	0
bin	-0.033333333333333	0
bin	0	0
bin	0.033333333333333	0
bin	0.066666666666667	0
bin	0.1	0
bin	0.13333333333333	0
bin	0.16666666666667	0
bin	0.2	0
bin	0.23333333333333	0
bin	0.26666666666667	0
bin	0.3	0
bin	0.33333333333333	0
bin	0.36666666666667	0
bin	0.4	0
bin	0.43333333333333	0
bin	0.46666666666667	0
bin	0.5	0
statistic scenarioPRJP1.node[1].wlan.radio 	packetErrorRate:histogram
field count 396758
field mean 0.1739103143384
field stddev 0.37084306152887
field sum 69000.308496275
field sqrsum 66563.703652787
field min 0
field max 1
attr source  packetErrorRate
attr title  "Packet error rate, histogram"
bin	-INF	0
bin	-1	0
bin	0	341270
bin	1	55488
bin	2	0
statistic scenarioPRJP1.node[1].wlan.radio 	minSNIR:histogram
field count 396758
field mean 2791.2679592676
field stddev 28204.768681834
field sum 1107457892.9831
field sqrsum 3.1871496668077e+14
field min 0.00016737409663655
field max 875904.71250992
attr source  minSNIR
attr title  "Min SNIR, histogram"
bin	-INF	0
bin	-38118.280417018	0
bin	-33035.816909454	0
bin	-27953.35340189	0
bin	-22870.889894325	0
bin	-17788.426386761	0
bin	-12705.962879197	0
bin	-7623.4993716326	0
bin	-2541.0358640684	362640
bin	2541.4276434958	15685
bin	7623.8911510601	6296
bin	12706.354658624	3445
bin	17788.818166189	1559
bin	22871.281673753	1116
bin	27953.745181317	743
bin	33036.208688881	640
bin	38118.672196445	703
bin	43201.13570401	567
bin	48283.599211574	282
bin	53366.062719138	214
bin	58448.526226702	283
bin	63530.989734267	130
bin	68613.453241831	116
bin	73695.916749395	70
bin	78778.380256959	82
bin	83860.843764524	49
bin	88943.307272088	81
bin	94025.770779652	38
bin	99108.234287216	54
bin	104190.69779478	38
bin	109273.16130234	59
bin	114355.62480991	1868
scalar scenarioPRJP1.node[1].lo0.lo 	droppedPkBitError:count 	0
attr interpolationmode  none
attr source  dropPkBitError
attr title  "packets dropped/bit error, count"
scalar scenarioPRJP1.node[1].lo0.lo 	droppedPkBitError:sum(packetBytes) 	0
attr interpolationmode  none
attr source  dropPkBitError
attr title  "packets dropped/bit error, sum(packetBytes)"
scalar scenarioPRJP1.node[1].lo0.lo 	rcvdPkFromHL:count 	230
attr interpolationmode  none
attr source  packetReceivedFromUpper
attr title  "packets received from higher layer, count"
scalar scenarioPRJP1.node[1].lo0.lo 	rcvdPkFromHL:sum(packetBytes) 	119600
attr interpolationmode  none
attr source  packetReceivedFromUpper
attr title  "packets received from higher layer, sum(packetBytes)"
scalar scenarioPRJP1.node[1].lo0.lo 	passedUpPk:count 	230
attr interpolationmode  none
attr source  packetSentToUpper
attr title  "packets passed to higher layer, count"
scalar scenarioPRJP1.node[1].lo0.lo 	passedUpPk:sum(packetBytes) 	119600
attr interpolationmode  none
attr source  packetSentToUpper
attr title  "packets passed to higher layer, sum(packetBytes)"
scalar scenarioPRJP1.node[38].app 	"Total sent" 	2599
scalar scenarioPRJP1.node[38].app 	"Total received" 	140
scalar scenarioPRJP1.node[38].app 	"Total deleted" 	4
scalar scenarioPRJP1.node[38].app 	dropPk:count 	4
attr interpolationmode  none
attr source  dropPk
attr title  "packets dropped, count"
scalar scenarioPRJP1.node[38].app 	dropPk:sum(packetBytes) 	2048
attr interpolationmode  none
attr source  dropPk
attr title  "packets dropped, sum(packetBytes)"
scalar scenarioPRJP1.node[38].app 	outOfOrderPk:count 	42
attr interpolationmode  none
attr source  outOfOrderPk
attr title  "packets received out of order, count"
scalar scenarioPRJP1.node[38].app 	outOfOrderPk:sum(packetBytes) 	21504
attr interpolationmode  none
attr source  outOfOrderPk
attr title  "packets received out of order, sum(packetBytes)"
scalar scenarioPRJP1.node[38].app 	rcvdPk:count 	140
attr interpolationmode  none
attr source  rcvdPk
attr title  "packets received, count"
scalar scenarioPRJP1.node[38].app 	rcvdPk:sum(packetBytes) 	71680
attr interpolationmode  none
attr source  rcvdPk
attr title  "packets received, sum(packetBytes)"
statistic scenarioPRJP1.node[38].app 	endToEndDelay:histogram
field count 140
field mean 2.1822529393213
field stddev 4.1028618012633
field sum 305.51541150498
field sqrsum 3006.5649242416
field min 0.002021160323
field max 16.592809055337
attr interpolationmode  none
attr source  messageAge(rcvdPk)
attr title  "delay, histogram"
attr unit  s
bin	-INF	0
bin	-8.293372787184	0
bin	-7.1873202608497	0
bin	-6.0812677345155	0
bin	-4.9752152081812	0
bin	-3.8691626818469	0
bin	-2.7631101555127	0
bin	-1.6570576291784	0
bin	-0.55100510284413	86
bin	0.55504742349013	18
bin	1.6610999498244	9
bin	2.7671524761587	4
bin	3.8732050024929	1
bin	4.9792575288272	2
bin	6.0853100551615	2
bin	7.1913625814957	3
bin	8.29741510783	2
bin	9.4034676341643	2
bin	10.509520160499	3
bin	11.615572686833	0
bin	12.721625213167	2
bin	13.827677739501	1
bin	14.933730265836	4
bin	16.03978279217	1
bin	17.145835318504	0
bin	18.251887844838	0
bin	19.357940371173	0
bin	20.463992897507	0
bin	21.570045423841	0
bin	22.676097950175	0
bin	23.78215047651	0
bin	24.888203002844	0
scalar scenarioPRJP1.node[38].app 	sentPk:count 	2599
attr interpolationmode  none
attr source  sentPk
attr title  "packets sent, count"
scalar scenarioPRJP1.node[38].app 	sentPk:sum(packetBytes) 	1330688
attr interpolationmode  none
attr source  sentPk
attr title  "packets sent, sum(packetBytes)"
scalar scenarioPRJP1.node[38].udp 	droppedPkBadChecksum:count 	0
attr interpolationmode  none
attr title  "packets dropped (checksum error), count"
scalar scenarioPRJP1.node[38].udp 	droppedPkWrongPort:count 	0
attr interpolationmode  none
attr title  "packets dropped (wrong port), count"
scalar scenarioPRJP1.node[38].udp 	passedUpPk:count 	186
attr interpolationmode  none
attr title  "packets passed up, count"
scalar scenarioPRJP1.node[38].udp 	rcvdPk:count 	186
attr interpolationmode  none
attr source  rcvdPk
attr title  "packets received, count"
scalar scenarioPRJP1.node[38].udp 	rcvdPk:sum(packetBytes) 	96720
attr interpolationmode  none
attr source  rcvdPk
attr title  "packets received, sum(packetBytes)"
scalar scenarioPRJP1.node[38].udp 	sentPk:count 	2599
attr interpolationmode  none
attr source  sentPk
attr title  "packets sent, count"
scalar scenarioPRJP1.node[38].udp 	sentPk:sum(packetBytes) 	1351480
attr interpolationmode  none
attr source  sentPk
attr title  "packets sent, sum(packetBytes)"
scalar scenarioPRJP1.node[38].networkLayer.arp 	failedARPResolution:count 	30
attr title  "ARP failed resolutions, count"
scalar scenarioPRJP1.node[38].networkLayer.arp 	completedARPResolution:count 	1372
attr title  "ARP completed resolutions, count"
scalar scenarioPRJP1.node[38].networkLayer.arp 	initiatedARPResolution:count 	102
attr title  "ARP initiated resolutions, count"
scalar scenarioPRJP1.node[38].networkLayer.arp 	sentReply:count 	55
attr title  "ARP replies sent, count"
scalar scenarioPRJP1.node[38].networkLayer.arp 	sentReq:count 	194
attr title  "ARP request sent, count"
scalar scenarioPRJP1.node[38].mobility 	startTime 	2.6
scalar scenarioPRJP1.node[38].mobility 	totalTime 	947.4
scalar scenarioPRJP1.node[38].mobility 	stopTime 	950
scalar scenarioPRJP1.node[38].mobility 	minSpeed 	2.4754928432505e-13
scalar scenarioPRJP1.node[38].mobility 	maxSpeed 	17.903554695437
scalar scenarioPRJP1.node[38].mobility 	totalDistance 	8577.4863880243
scalar scenarioPRJP1.node[38].mobility 	totalCO2Emission 	2434.3009134368
scalar scenarioPRJP1.node[38].wlan.mgmt 	dataQueueLen:max 	95
attr interpolationmode  sample-hold
attr title  "data queue length, max"
scalar scenarioPRJP1.node[38].wlan.mgmt 	dataQueueLen:timeavg 	0.28468145120256
attr interpolationmode  sample-hold
attr title  "data queue length, timeavg"
scalar scenarioPRJP1.node[38].wlan.mgmt 	dropPkByQueue:count 	0
attr interpolationmode  none
attr source  dropPkByQueue
attr title  "packets dropped by queue, count"
scalar scenarioPRJP1.node[38].wlan.mgmt 	dropPkByQueue:sum(packetBytes) 	0
attr interpolationmode  none
attr source  dropPkByQueue
attr title  "packets dropped by queue, sum(packetBytes)"
scalar scenarioPRJP1.node[38].wlan.mac 	"number of received packets" 	12861
scalar scenarioPRJP1.node[38].wlan.mac 	"number of collisions" 	80547
scalar scenarioPRJP1.node[38].wlan.mac 	"number of internal collisions" 	0
scalar scenarioPRJP1.node[38].wlan.mac 	"number of retry for AC 0" 	33333
scalar scenarioPRJP1.node[38].wlan.mac 	"number of retry for AC 1" 	0
scalar scenarioPRJP1.node[38].wlan.mac 	"number of retry for AC 2" 	0
scalar scenarioPRJP1.node[38].wlan.mac 	"number of retry for AC 3" 	0
scalar scenarioPRJP1.node[38].wlan.mac 	"sent and received bits" 	21773760
scalar scenarioPRJP1.node[38].wlan.mac 	"sent packet within AC 0" 	5740
scalar scenarioPRJP1.node[38].wlan.mac 	"sent packet within AC 1" 	0
scalar scenarioPRJP1.node[38].wlan.mac 	"sent packet within AC 2" 	0
scalar scenarioPRJP1.node[38].wlan.mac 	"sent packet within AC 3" 	0
scalar scenarioPRJP1.node[38].wlan.mac 	"sent in TXOP " 	0
scalar scenarioPRJP1.node[38].wlan.mac 	"sentWithoutRetry AC 0" 	5123
scalar scenarioPRJP1.node[38].wlan.mac 	"sentWithoutRetry AC 1" 	0
scalar scenarioPRJP1.node[38].wlan.mac 	"sentWithoutRetry AC 2" 	0
scalar scenarioPRJP1.node[38].wlan.mac 	"sentWithoutRetry AC 3" 	0
scalar scenarioPRJP1.node[38].wlan.mac 	"numGivenUp AC 0" 	5321
scalar scenarioPRJP1.node[38].wlan.mac 	"numGivenUp AC 1" 	0
scalar scenarioPRJP1.node[38].wlan.mac 	"numGivenUp AC 2" 	0
scalar scenarioPRJP1.node[38].wlan.mac 	"numGivenUp AC 3" 	0
scalar scenarioPRJP1.node[38].wlan.mac 	"numDropped AC 0" 	240
scalar scenarioPRJP1.node[38].wlan.mac 	"numDropped AC 1" 	0
scalar scenarioPRJP1.node[38].wlan.mac 	"numDropped AC 2" 	0
scalar scenarioPRJP1.node[38].wlan.mac 	"numDropped AC 3" 	0
scalar scenarioPRJP1.node[38].wlan.mac 	rcvdPkFromLL:count 	353943
attr interpolationmode  none
attr source  packetReceivedFromLower
attr title  "packets received from lower layer, count"
scalar scenarioPRJP1.node[38].wlan.mac 	rcvdPkFromLL:sum(packetBytes) 	82930818
attr interpolationmode  none
attr source  packetReceivedFromLower
attr title  "packets received from lower layer, sum(packetBytes)"
scalar scenarioPRJP1.node[38].wlan.mac 	sentDownPk:count 	71299
attr interpolationmode  none
attr source  packetSentToLower
attr title  "packets sent to lower layer, count"
scalar scenarioPRJP1.node[38].wlan.mac 	sentDownPk:sum(packetBytes) 	17056798
attr interpolationmode  none
attr source  packetSentToLower
attr title  "packets sent to lower layer, sum(packetBytes)"
scalar scenarioPRJP1.node[38].wlan.mac 	rcvdPkFromHL:count 	25346
attr interpolationmode  none
attr source  packetReceivedFromUpper
attr title  "packets received from higher layer, count"
scalar scenarioPRJP1.node[38].wlan.mac 	rcvdPkFromHL:sum(packetBytes) 	4723984
attr interpolationmode  none
attr source  packetReceivedFromUpper
attr title  "packets received from higher layer, sum(packetBytes)"
scalar scenarioPRJP1.node[38].wlan.mac 	passedUpPk:count 	58670
attr interpolationmode  none
attr source  packetSentToUpper
attr title  "packets passed to higher layer, count"
scalar scenarioPRJP1.node[38].wlan.mac 	passedUpPk:sum(packetBytes) 	5727188
attr interpolationmode  none
attr source  packetSentToUpper
attr title  "packets passed to higher layer, sum(packetBytes)"
statistic scenarioPRJP1.node[38].wlan.radio 	radioChannel:histogram
field count 1
field mean 3
field stddev -nan
field sum 3
field sqrsum 9
field min 3
field max 3
attr interpolationmode  sample-hold
attr source  radioChannelChanged
attr title  "Radio channel, histogram"
bin	-INF	0
bin	2	0
bin	3	1
bin	4	0
scalar scenarioPRJP1.node[38].wlan.radio 	transmissionState:count 	285196
attr interpolationmode  sample-hold
attr source  transmissionStateChanged
[...]
field max 3
attr interpolationmode  sample-hold
attr source  radioChannelChanged
attr title  "Radio channel, histogram"
bin	-INF	0
bin	2	0
bin	3	1
bin	4	0
scalar scenarioPRJP1.node[56].wlan.radio 	transmissionState:count 	252964
attr interpolationmode  sample-hold
attr source  transmissionStateChanged
attr title  "Radio transmission state, count"
scalar scenarioPRJP1.node[56].wlan.radio 	receptionState:count 	783682
attr interpolationmode  sample-hold
attr source  receptionStateChanged
attr title  "Radio reception state, count"
scalar scenarioPRJP1.node[56].wlan.radio 	radioMode:count 	126484
attr interpolationmode  sample-hold
attr source  radioModeChanged
attr title  "Radio mode, count"
statistic scenarioPRJP1.node[56].wlan.radio 	symbolErrorRate:histogram
field count 0
field mean -nan
field stddev -nan
field sum 0
field sqrsum 0
field min -nan
field max -nan
attr source  symbolErrorRate
attr title  "Symbol error rate, histogram"
bin	-INF	0
bin	-0.5	0
bin	-0.46666666666667	0
bin	-0.43333333333333	0
bin	-0.4	0
bin	-0.36666666666667	0
bin	-0.33333333333333	0
bin	-0.3	0
bin	-0.26666666666667	0
bin	-0.23333333333333	0
bin	-0.2	0
bin	-0.16666666666667	0
bin	-0.13333333333333	0
bin	-0.1	0
bin	-0.066666666666667	0
bin	-0.033333333333333	0
bin	0	0
bin	0.033333333333333	0
bin	0.066666666666667	0
bin	0.1	0
bin	0.13333333333333	0
bin	0.16666666666667	0
bin	0.2	0
bin	0.23333333333333	0
bin	0.26666666666667	0
bin	0.3	0
bin	0.33333333333333	0
bin	0.36666666666667	0
bin	0.4	0
bin	0.43333333333333	0
bin	0.46666666666667	0
bin	0.5	0
statistic scenarioPRJP1.node[56].wlan.radio 	bitErrorRate:histogram
field count 0
field mean -nan
field stddev -nan
field sum 0
field sqrsum 0
field min -nan
field max -nan
attr source  bitErrorRate
attr title  "Bit error rate, histogram"
bin	-INF	0
bin	-0.5	0
bin	-0.46666666666667	0
bin	-0.43333333333333	0
bin	-0.4	0
bin	-0.36666666666667	0
bin	-0.33333333333333	0
bin	-0.3	0
bin	-0.26666666666667	0
bin	-0.23333333333333	0
bin	-0.2	0
bin	-0.16666666666667	0
bin	-0.13333333333333	0
bin	-0.1	0
bin	-0.066666666666667	0
bin	-0.033333333333333	0
bin	0	0
bin	0.033333333333333	0
bin	0.066666666666667	0
bin	0.1	0
bin	0.13333333333333	0
bin	0.16666666666667	0
bin	0.2	0
bin	0.23333333333333	0
bin	0.26666666666667	0
bin	0.3	0
bin	0.33333333333333	0
bin	0.36666666666667	0
bin	0.4	0
bin	0.43333333333333	0
bin	0.46666666666667	0
bin	0.5	0
statistic scenarioPRJP1.node[56].wlan.radio 	packetErrorRate:histogram
field count 319344
field mean 0.16614011742217
field stddev 0.36424825708108
field sum 53055.849658067
field sqrsum 51184.110130977
field min 0
field max 1
attr source  packetErrorRate
attr title  "Packet error rate, histogram"
bin	-INF	0
bin	-0.0022544353787693	0
bin	-0.0019538439949334	0
bin	-0.0016532526110975	0
bin	-0.0013526612272616	0
bin	-0.0010520698434257	0
bin	-0.00075147845958976	0
bin	-0.00045088707575386	0
bin	-0.00015029569191795	244279
bin	0.00015029569191795	2653
bin	0.00045088707575386	1325
bin	0.00075147845958976	887
bin	0.0010520698434257	658
bin	0.0013526612272616	491
bin	0.0016532526110975	419
bin	0.0019538439949334	347
bin	0.0022544353787693	302
bin	0.0025550267626052	302
bin	0.0028556181464411	269
bin	0.003156209530277	254
bin	0.0034568009141129	224
bin	0.0037573922979488	201
bin	0.0040579836817847	165
bin	0.0043585750656206	165
bin	0.0046591664494565	167
bin	0.0049597578332924	164
bin	0.0052603492171284	160
bin	0.0055609406009643	145
bin	0.0058615319848002	153
bin	0.0061621233686361	148
bin	0.006462714752472	136
bin	0.0067633061363079	65330
statistic scenarioPRJP1.node[56].wlan.radio 	minSNIR:histogram
field count 319344
field mean 3224.6277305071
field stddev 30191.905435567
field sum 1029765517.9711
field sqrsum 2.9441809056278e+14
field min 0.00019320352313925
field max 753239.71923443
attr source  minSNIR
attr title  "Min SNIR, histogram"
bin	-INF	0
bin	-13796.003172085	0
bin	-11956.200914605	0
bin	-10116.398657125	0
bin	-8276.5963996444	0
bin	-6436.7941421641	0
bin	-4596.9918846838	0
bin	-2757.1896272034	0
bin	-917.38736972314	264508
bin	922.41488775717	23175
bin	2762.2171452375	8104
bin	4602.0194027178	5234
bin	6441.8216601981	3294
bin	8281.6239176784	2201
bin	10121.426175159	1539
bin	11961.228432639	1573
bin	13801.030690119	960
bin	15640.8329476	860
bin	17480.63520508	630
bin	19320.43746256	584
bin	21160.239720041	493
bin	23000.041977521	452
bin	24839.844235001	382
bin	26679.646492481	244
bin	28519.448749962	228
bin	30359.251007442	235
bin	32199.053264922	206
bin	34038.855522403	212
bin	35878.657779883	151
bin	37718.460037363	209
bin	39558.262294844	148
bin	41398.064552324	3722
scalar scenarioPRJP1.node[56].lo0.lo 	droppedPkBitError:count 	0
attr interpolationmode  none
attr source  dropPkBitError
attr title  "packets dropped/bit error, count"
scalar scenarioPRJP1.node[56].lo0.lo 	droppedPkBitError:sum(packetBytes) 	0
attr interpolationmode  none
attr source  dropPkBitError
attr title  "packets dropped/bit error, sum(packetBytes)"
scalar scenarioPRJP1.node[56].lo0.lo 	rcvdPkFromHL:count 	194
attr interpolationmode  none
attr source  packetReceivedFromUpper
attr title  "packets received from higher layer, count"
scalar scenarioPRJP1.node[56].lo0.lo 	rcvdPkFromHL:sum(packetBytes) 	100880
attr interpolationmode  none
attr source  packetReceivedFromUpper
attr title  "packets received from higher layer, sum(packetBytes)"
scalar scenarioPRJP1.node[56].lo0.lo 	passedUpPk:count 	194
attr interpolationmode  none
attr source  packetSentToUpper
attr title  "packets passed to higher layer, count"
scalar scenarioPRJP1.node[56].lo0.lo 	passedUpPk:sum(packetBytes) 	100880
attr interpolationmode  none
attr source  packetSentToUpper
attr title  "packets passed to higher layer, sum(packetBytes)"
scalar scenarioPRJP1.node[73].app 	"Total sent" 	2609
scalar scenarioPRJP1.node[73].app 	"Total received" 	150
scalar scenarioPRJP1.node[73].app 	"Total deleted" 	5
scalar scenarioPRJP1.node[73].app 	dropPk:count 	5
attr interpolationmode  none
attr source  dropPk
attr title  "packets dropped, count"
scalar scenarioPRJP1.node[73].app 	dropPk:sum(packetBytes) 	2560
attr interpolationmode  none
attr source  dropPk
attr title  "packets dropped, sum(packetBytes)"
scalar scenarioPRJP1.node[73].app 	outOfOrderPk:count 	23
attr interpolationmode  none
attr source  outOfOrderPk
attr title  "packets received out of order, count"
scalar scenarioPRJP1.node[73].app 	outOfOrderPk:sum(packetBytes) 	11776
attr interpolationmode  none
attr source  outOfOrderPk
attr title  "packets received out of order, sum(packetBytes)"
scalar scenarioPRJP1.node[73].app 	rcvdPk:count 	150
attr interpolationmode  none
attr source  rcvdPk
attr title  "packets received, count"
scalar scenarioPRJP1.node[73].app 	rcvdPk:sum(packetBytes) 	76800
attr interpolationmode  none
attr source  rcvdPk
attr title  "packets received, sum(packetBytes)"
statistic scenarioPRJP1.node[73].app 	endToEndDelay:histogram
field count 150
field mean 1.4185985347618
field stddev 3.4313094114864
field sum 212.78978021426
field sqrsum 2056.1720277502
field min 0.000964023255
field max 18.957360797448
attr interpolationmode  none
attr source  messageAge(rcvdPk)
attr title  "delay, histogram"
attr unit  s
bin	-INF	0
bin	-9.4772343638415	0
bin	-8.2134745788953	0
bin	-6.9497147939491	0
bin	-5.6859550090029	0
bin	-4.4221952240567	0
bin	-3.1584354391105	0
bin	-1.8946756541643	0
bin	-0.6309158692181	109
bin	0.6328439157281	16
bin	1.8966037006743	7
bin	3.1603634856205	2
bin	4.4241232705667	4
bin	5.6878830555129	2
bin	6.9516428404591	1
bin	8.2154026254053	0
bin	9.4791624103515	2
bin	10.742922195298	0
bin	12.006681980244	1
bin	13.27044176519	4
bin	14.534201550136	1
bin	15.797961335082	0
bin	17.061721120029	0
bin	18.325480904975	1
bin	19.589240689921	0
bin	20.853000474867	0
bin	22.116760259813	0
bin	23.38052004476	0
bin	24.644279829706	0
bin	25.908039614652	0
bin	27.171799399598	0
bin	28.435559184545	0
scalar scenarioPRJP1.node[73].app 	sentPk:count 	2609
attr interpolationmode  none
attr source  sentPk
attr title  "packets sent, count"
scalar scenarioPRJP1.node[73].app 	sentPk:sum(packetBytes) 	1335808
attr interpolationmode  none
attr source  sentPk
attr title  "packets sent, sum(packetBytes)"
scalar scenarioPRJP1.node[73].udp 	droppedPkBadChecksum:count 	0
attr interpolationmode  none
attr title  "packets dropped (checksum error), count"
scalar scenarioPRJP1.node[73].udp 	droppedPkWrongPort:count 	0
attr interpolationmode  none
attr title  "packets dropped (wrong port), count"
scalar scenarioPRJP1.node[73].udp 	passedUpPk:count 	178
attr interpolationmode  none
attr title  "packets passed up, count"
scalar scenarioPRJP1.node[73].udp 	rcvdPk:count 	178
attr interpolationmode  none
attr source  rcvdPk
attr title  "packets received, count"
scalar scenarioPRJP1.node[73].udp 	rcvdPk:sum(packetBytes) 	92560
attr interpolationmode  none
attr source  rcvdPk
attr title  "packets received, sum(packetBytes)"
scalar scenarioPRJP1.node[73].udp 	sentPk:count 	2609
attr interpolationmode  none
attr source  sentPk
attr title  "packets sent, count"
scalar scenarioPRJP1.node[73].udp 	sentPk:sum(packetBytes) 	1356680
attr interpolationmode  none
attr source  sentPk
attr title  "packets sent, sum(packetBytes)"
scalar scenarioPRJP1.node[73].networkLayer.arp 	failedARPResolution:count 	19
attr title  "ARP failed resolutions, count"
scalar scenarioPRJP1.node[73].networkLayer.arp 	completedARPResolution:count 	1332
attr title  "ARP completed resolutions, count"
scalar scenarioPRJP1.node[73].networkLayer.arp 	initiatedARPResolution:count 	87
attr title  "ARP initiated resolutions, count"
scalar scenarioPRJP1.node[73].networkLayer.arp 	sentReply:count 	50
attr title  "ARP replies sent, count"
scalar scenarioPRJP1.node[73].networkLayer.arp 	sentReq:count 	171
attr title  "ARP request sent, count"
scalar scenarioPRJP1.node[73].mobility 	startTime 	7.3
scalar scenarioPRJP1.node[73].mobility 	totalTime 	942.7
scalar scenarioPRJP1.node[73].mobility 	stopTime 	950
scalar scenarioPRJP1.node[73].mobility 	minSpeed 	2.4757628343875e-13
scalar scenarioPRJP1.node[73].mobility 	maxSpeed 	21.114371487478
scalar scenarioPRJP1.node[73].mobility 	totalDistance 	9343.6628742843
scalar scenarioPRJP1.node[73].mobility 	totalCO2Emission 	2774.4954767942
scalar scenarioPRJP1.node[73].wlan.mgmt 	dataQueueLen:max 	100
attr interpolationmode  sample-hold
attr title  "data queue length, max"
scalar scenarioPRJP1.node[73].wlan.mgmt 	dataQueueLen:timeavg 	0.26738064863125
attr interpolationmode  sample-hold
attr title  "data queue length, timeavg"
scalar scenarioPRJP1.node[73].wlan.mgmt 	dropPkByQueue:count 	12
attr interpolationmode  none
attr source  dropPkByQueue
attr title  "packets dropped by queue, count"
scalar scenarioPRJP1.node[73].wlan.mgmt 	dropPkByQueue:sum(packetBytes) 	3652
attr interpolationmode  none
attr source  dropPkByQueue
attr title  "packets dropped by queue, sum(packetBytes)"
scalar scenarioPRJP1.node[73].wlan.mac 	"number of received packets" 	13045
scalar scenarioPRJP1.node[73].wlan.mac 	"number of collisions" 	69040
scalar scenarioPRJP1.node[73].wlan.mac 	"number of internal collisions" 	0
scalar scenarioPRJP1.node[73].wlan.mac 	"number of retry for AC 0" 	28840
scalar scenarioPRJP1.node[73].wlan.mac 	"number of retry for AC 1" 	0
scalar scenarioPRJP1.node[73].wlan.mac 	"number of retry for AC 2" 	0
scalar scenarioPRJP1.node[73].wlan.mac 	"number of retry for AC 3" 	0
scalar scenarioPRJP1.node[73].wlan.mac 	"sent and received bits" 	22544640
scalar scenarioPRJP1.node[73].wlan.mac 	"sent packet within AC 0" 	5858
scalar scenarioPRJP1.node[73].wlan.mac 	"sent packet within AC 1" 	0
scalar scenarioPRJP1.node[73].wlan.mac 	"sent packet within AC 2" 	0
scalar scenarioPRJP1.node[73].wlan.mac 	"sent packet within AC 3" 	0
scalar scenarioPRJP1.node[73].wlan.mac 	"sent in TXOP " 	0
scalar scenarioPRJP1.node[73].wlan.mac 	"sentWithoutRetry AC 0" 	5157
scalar scenarioPRJP1.node[73].wlan.mac 	"sentWithoutRetry AC 1" 	0
scalar scenarioPRJP1.node[73].wlan.mac 	"sentWithoutRetry AC 2" 	0
scalar scenarioPRJP1.node[73].wlan.mac 	"sentWithoutRetry AC 3" 	0
scalar scenarioPRJP1.node[73].wlan.mac 	"numGivenUp AC 0" 	4537
scalar scenarioPRJP1.node[73].wlan.mac 	"numGivenUp AC 1" 	0
scalar scenarioPRJP1.node[73].wlan.mac 	"numGivenUp AC 2" 	0
scalar scenarioPRJP1.node[73].wlan.mac 	"numGivenUp AC 3" 	0
scalar scenarioPRJP1.node[73].wlan.mac 	"numDropped AC 0" 	401
scalar scenarioPRJP1.node[73].wlan.mac 	"numDropped AC 1" 	0
scalar scenarioPRJP1.node[73].wlan.mac 	"numDropped AC 2" 	0
scalar scenarioPRJP1.node[73].wlan.mac 	"numDropped AC 3" 	0
scalar scenarioPRJP1.node[73].wlan.mac 	rcvdPkFromLL:count 	315185
attr interpolationmode  none
attr source  packetReceivedFromLower
attr title  "packets received from lower layer, count"
scalar scenarioPRJP1.node[73].wlan.mac 	rcvdPkFromLL:sum(packetBytes) 	76567820
attr interpolationmode  none
attr source  packetReceivedFromLower
attr title  "packets received from lower layer, sum(packetBytes)"
scalar scenarioPRJP1.node[73].wlan.mac 	sentDownPk:count 	65863
attr interpolationmode  none
attr source  packetSentToLower
attr title  "packets sent to lower layer, count"
scalar scenarioPRJP1.node[73].wlan.mac 	sentDownPk:sum(packetBytes) 	15299478
attr interpolationmode  none
attr source  packetSentToLower
attr title  "packets sent to lower layer, sum(packetBytes)"
scalar scenarioPRJP1.node[73].wlan.mac 	rcvdPkFromHL:count 	24379
attr interpolationmode  none
attr source  packetReceivedFromUpper
attr title  "packets received from higher layer, count"
scalar scenarioPRJP1.node[73].wlan.mac 	rcvdPkFromHL:sum(packetBytes) 	4588244
attr interpolationmode  none
attr source  packetReceivedFromUpper
attr title  "packets received from higher layer, sum(packetBytes)"
scalar scenarioPRJP1.node[73].wlan.mac 	passedUpPk:count 	52278
attr interpolationmode  none
attr source  packetSentToUpper
attr title  "packets passed to higher layer, count"
scalar scenarioPRJP1.node[73].wlan.mac 	passedUpPk:sum(packetBytes) 	5213716
attr interpolationmode  none
attr source  packetSentToUpper
attr title  "packets passed to higher layer, sum(packetBytes)"
statistic scenarioPRJP1.node[73].wlan.radio 	radioChannel:histogram
field count 1
field mean 3
field stddev -nan
field sum 3
field sqrsum 9
field min 3
field max 3
attr interpolationmode  sample-hold
attr source  radioChannelChanged
attr title  "Radio channel, histogram"
bin	-INF	0
bin	2	0
bin	3	1
bin	4	0
scalar scenarioPRJP1.node[73].wlan.radio 	transmissionState:count 	263452
attr interpolationmode  sample-hold
attr source  transmissionStateChanged
attr title  "Radio transmission state, count"
scalar scenarioPRJP1.node[73].wlan.radio 	receptionState:count 	780334
attr interpolationmode  sample-hold
attr source  receptionStateChanged
attr title  "Radio reception state, count"
scalar scenarioPRJP1.node[73].wlan.radio 	radioMode:count 	131728
attr interpolationmode  sample-hold
attr source  radioModeChanged
attr title  "Radio mode, count"
statistic scenarioPRJP1.node[73].wlan.radio 	symbolErrorRate:histogram
field count 0
field mean -nan
field stddev -nan
field sum 0
field sqrsum 0
field min -nan
field max -nan
attr source  symbolErrorRate
attr title  "Symbol error rate, histogram"
bin	-INF	0
bin	-0.5	0
bin	-0.46666666666667	0
bin	-0.43333333333333	0
bin	-0.4	0
bin	-0.36666666666667	0
bin	-0.33333333333333	0
bin	-0.3	0
bin	-0.26666666666667	0
bin	-0.23333333333333	0
bin	-0.2	0
bin	-0.16666666666667	0
bin	-0.13333333333333	0
bin	-0.1	0
bin	-0.066666666666667	0
bin	-0.033333333333333	0
bin	0	0
bin	0.033333333333333	0
bin	0.066666666666667	0
bin	0.1	0
bin	0.13333333333333	0
bin	0.16666666666667	0
bin	0.2	0
bin	0.23333333333333	0
bin	0.26666666666667	0
bin	0.3	0
bin	0.33333333333333	0
bin	0.36666666666667	0
bin	0.4	0
bin	0.43333333333333	0
bin	0.46666666666667	0
bin	0.5	0
statistic scenarioPRJP1.node[73].wlan.radio 	bitErrorRate:histogram
field count 0
field mean -nan
field stddev -nan
field sum 0
field sqrsum 0
field min -nan
field max -nan
attr source  bitErrorRate
attr title  "Bit error rate, histogram"
bin	-INF	0
bin	-0.5	0
bin	-0.46666666666667	0
bin	-0.43333333333333	0
bin	-0.4	0
bin	-0.36666666666667	0
bin	-0.33333333333333	0
bin	-0.3	0
bin	-0.26666666666667	0
bin	-0.23333333333333	0
bin	-0.2	0
bin	-0.16666666666667	0
bin	-0.13333333333333	0
bin	-0.1	0
bin	-0.066666666666667	0
bin	-0.033333333333333	0
bin	0	0
bin	0.033333333333333	0
bin	0.066666666666667	0
bin	0.1	0
bin	0.13333333333333	0
bin	0.16666666666667	0
bin	0.2	0
bin	0.23333333333333	0
bin	0.26666666666667	0
bin	0.3	0
bin	0.33333333333333	0
bin	0.36666666666667	0
bin	0.4	0
bin	0.43333333333333	0
bin	0.46666666666667	0
bin	0.5	0
statistic scenarioPRJP1.node[73].wlan.radio 	packetErrorRate:histogram
field count 315185
field mean 0.20423885998284
field stddev 0.39342408684057
field sum 64373.025083692
field sqrsum 61932.444552465
field min 0
field max 1
attr source  packetErrorRate
attr title  "Packet error rate, histogram"
bin	-INF	0
bin	-0.0034011776237186	0
bin	-0.0029476872738895	0
bin	-0.0024941969240603	0
bin	-0.0020407065742312	0
bin	-0.001587216224402	0
bin	-0.0011337258745729	0
bin	-0.00068023552474372	0
bin	-0.00022674517491457	223772
bin	0.00022674517491457	3466
bin	0.00068023552474372	1651
bin	0.0011337258745729	1146
bin	0.001587216224402	862
bin	0.0020407065742312	668
bin	0.0024941969240603	530
bin	0.0029476872738895	508
bin	0.0034011776237186	425
bin	0.0038546679735478	406
bin	0.0043081583233769	361
bin	0.0047616486732061	311
bin	0.0052151390230352	303
bin	0.0056686293728644	294
bin	0.0061221197226935	263
bin	0.0065756100725226	227
bin	0.0070291004223518	212
bin	0.0074825907721809	183
bin	0.0079360811220101	227
bin	0.0083895714718392	183
bin	0.0088430618216684	167
bin	0.0092965521714975	160
bin	0.0097500425213267	152
bin	0.010203532871156	78708
statistic scenarioPRJP1.node[73].wlan.radio 	minSNIR:histogram
field count 315185
field mean 4038.2768488488
field stddev 42069.265673071
field sum 1272804288.6044
field sqrsum 5.6295986454032e+14
field min 0.00016761323648865
field max 1796512.229801
attr source  minSNIR
attr title  "Min SNIR, histogram"
bin	-INF	0
bin	-16300.337586638	0
bin	-14126.632833541	0
bin	-11952.928080443	0
bin	-9779.2233273459	0
bin	-7605.5185742485	0
bin	-5431.8138211511	0
bin	-3258.1090680537	0
bin	-1084.4043149563	276237
bin	1089.300438141	14066
bin	3263.0051912384	5839
bin	5436.7099443358	3805
bin	7610.4146974332	2575
bin	9784.1194505306	1786
bin	11957.824203628	1351
bin	14131.528956725	1140
bin	16305.233709823	716
bin	18478.93846292	669
bin	20652.643216018	958
bin	22826.347969115	474
bin	25000.052722212	435
bin	27173.75747531	268
bin	29347.462228407	209
bin	31521.166981504	320
bin	33694.871734602	130
bin	35868.576487699	178
bin	38042.281240797	160
bin	40215.985993894	169
bin	42389.690746991	100
bin	44563.395500089	146
bin	46737.100253186	132
bin	48910.805006284	3322
scalar scenarioPRJP1.node[73].lo0.lo 	droppedPkBitError:count 	0
attr interpolationmode  none
attr source  dropPkBitError
attr title  "packets dropped/bit error, count"
scalar scenarioPRJP1.node[73].lo0.lo 	droppedPkBitError:sum(packetBytes) 	0
attr interpolationmode  none
attr source  dropPkBitError
attr title  "packets dropped/bit error, sum(packetBytes)"
scalar scenarioPRJP1.node[73].lo0.lo 	rcvdPkFromHL:count 	178
attr interpolationmode  none
attr source  packetReceivedFromUpper
attr title  "packets received from higher layer, count"
scalar scenarioPRJP1.node[73].lo0.lo 	rcvdPkFromHL:sum(packetBytes) 	92560
attr interpolationmode  none
attr source  packetReceivedFromUpper
attr title  "packets received from higher layer, sum(packetBytes)"
scalar scenarioPRJP1.node[73].lo0.lo 	passedUpPk:count 	178
attr interpolationmode  none
attr source  packetSentToUpper
attr title  "packets passed to higher layer, count"
scalar scenarioPRJP1.node[73].lo0.lo 	passedUpPk:sum(packetBytes) 	92560
attr interpolationmode  none
attr source  packetSentToUpper
attr title  "packets passed to higher layer, sum(packetBytes)"
