version 2
run DYMOUM-FS-50n-16-20150612-12:39:07-2266
attr configname DYMOUM-FS-50n
attr datetime 20150612-12:39:07
attr experiment DYMOUM-FS-50n
attr inifile omnetpp.ini
attr iterationvars ""
attr iterationvars2 $repetition=16
attr measurement ""
attr network Prj_Part1_propag.scenarioPRJP1
attr processid 2266
attr repetition 16
attr replication #16
attr resultdir results
attr runnumber 16
attr seedset 16

scalar scenarioPRJP1.radioMedium.propagation 	"Arrival computation count" 	119508518
scalar scenarioPRJP1.radioMedium 	"transmission count" 	2438987
scalar scenarioPRJP1.radioMedium 	"radio frame send count" 	119508518
scalar scenarioPRJP1.radioMedium 	"reception computation count" 	118569047
scalar scenarioPRJP1.radioMedium 	"interference computation count" 	311787655
scalar scenarioPRJP1.radioMedium 	"reception decision computation count" 	10276026
scalar scenarioPRJP1.radioMedium 	"listening decision computation count" 	186649272
scalar scenarioPRJP1.radioMedium 	"reception cache hit" 	86.93210876932
attr unit  %
scalar scenarioPRJP1.radioMedium 	"interference cache hit" 	50
attr unit  %
scalar scenarioPRJP1.radioMedium 	"noise cache hit" 	0
attr unit  %
scalar scenarioPRJP1.radioMedium 	"snir cache hit" 	0
attr unit  %
scalar scenarioPRJP1.radioMedium 	"reception decision cache hit" 	0
attr unit  %
scalar scenarioPRJP1.node[0].app 	"Total sent" 	5017
scalar scenarioPRJP1.node[0].app 	"Total received" 	1280
scalar scenarioPRJP1.node[0].app 	"Total deleted" 	164
scalar scenarioPRJP1.node[0].app 	dropPk:count 	164
attr interpolationmode  none
attr source  dropPk
attr title  "packets dropped, count"
scalar scenarioPRJP1.node[0].app 	dropPk:sum(packetBytes) 	83968
attr interpolationmode  none
attr source  dropPk
attr title  "packets dropped, sum(packetBytes)"
scalar scenarioPRJP1.node[0].app 	outOfOrderPk:count 	1
attr interpolationmode  none
attr source  outOfOrderPk
attr title  "packets received out of order, count"
scalar scenarioPRJP1.node[0].app 	outOfOrderPk:sum(packetBytes) 	512
attr interpolationmode  none
attr source  outOfOrderPk
attr title  "packets received out of order, sum(packetBytes)"
scalar scenarioPRJP1.node[0].app 	rcvdPk:count 	1280
attr interpolationmode  none
attr source  rcvdPk
attr title  "packets received, count"
scalar scenarioPRJP1.node[0].app 	rcvdPk:sum(packetBytes) 	655360
attr interpolationmode  none
attr source  rcvdPk
attr title  "packets received, sum(packetBytes)"
statistic scenarioPRJP1.node[0].app 	endToEndDelay:histogram
field count 1280
field mean 4.1138092416759
field stddev 5.5699649685807
field sum 5265.6758293452
field sqrsum 61342.333862236
field min 0.000891011007
field max 19.843836296788
attr interpolationmode  none
attr source  messageAge(rcvdPk)
attr title  "delay, histogram"
attr unit  s
bin	-INF	0
bin	-9.563660126572	0
bin	-8.2883817988632	0
bin	-7.0131034711544	0
bin	-5.7378251434456	0
bin	-4.4625468157368	0
bin	-3.187268488028	0
bin	-1.9119901603192	0
bin	-0.6367118326104	637
bin	0.6385664950984	93
bin	1.9138448228072	62
bin	3.189123150516	47
bin	4.4644014782248	54
bin	5.7396798059336	54
bin	7.0149581336424	44
bin	8.2902364613512	52
bin	9.56551478906	35
bin	10.840793116769	36
bin	12.116071444478	37
bin	13.391349772186	35
bin	14.666628099895	23
bin	15.941906427604	20
bin	17.217184755313	24
bin	18.492463083022	25
bin	19.76774141073	2
bin	21.043019738439	0
bin	22.318298066148	0
bin	23.593576393857	0
bin	24.868854721566	0
bin	26.144133049274	0
bin	27.419411376983	0
bin	28.694689704692	0
scalar scenarioPRJP1.node[0].app 	sentPk:count 	5017
attr interpolationmode  none
attr source  sentPk
attr title  "packets sent, count"
scalar scenarioPRJP1.node[0].app 	sentPk:sum(packetBytes) 	2568704
attr interpolationmode  none
attr source  sentPk
attr title  "packets sent, sum(packetBytes)"
scalar scenarioPRJP1.node[0].udp 	droppedPkBadChecksum:count 	0
attr interpolationmode  none
attr title  "packets dropped (checksum error), count"
scalar scenarioPRJP1.node[0].udp 	droppedPkWrongPort:count 	9
attr interpolationmode  none
attr title  "packets dropped (wrong port), count"
scalar scenarioPRJP1.node[0].udp 	passedUpPk:count 	1445
attr interpolationmode  none
attr title  "packets passed up, count"
scalar scenarioPRJP1.node[0].udp 	rcvdPk:count 	1454
attr interpolationmode  none
attr source  rcvdPk
attr title  "packets received, count"
scalar scenarioPRJP1.node[0].udp 	rcvdPk:sum(packetBytes) 	756080
attr interpolationmode  none
attr source  rcvdPk
attr title  "packets received, sum(packetBytes)"
scalar scenarioPRJP1.node[0].udp 	sentPk:count 	5017
attr interpolationmode  none
attr source  sentPk
attr title  "packets sent, count"
scalar scenarioPRJP1.node[0].udp 	sentPk:sum(packetBytes) 	2608840
attr interpolationmode  none
attr source  sentPk
attr title  "packets sent, sum(packetBytes)"
scalar scenarioPRJP1.node[0].networkLayer.arp 	failedARPResolution:count 	8
attr title  "ARP failed resolutions, count"
scalar scenarioPRJP1.node[0].networkLayer.arp 	completedARPResolution:count 	651
attr title  "ARP completed resolutions, count"
scalar scenarioPRJP1.node[0].networkLayer.arp 	initiatedARPResolution:count 	94
attr title  "ARP initiated resolutions, count"
scalar scenarioPRJP1.node[0].networkLayer.arp 	sentReply:count 	78
attr title  "ARP replies sent, count"
scalar scenarioPRJP1.node[0].networkLayer.arp 	sentReq:count 	151
attr title  "ARP request sent, count"
scalar scenarioPRJP1.node[0].manetrouting 	"simulated time" 	1900
scalar scenarioPRJP1.node[0].manetrouting 	"Dymo totalSend " 	2467472
scalar scenarioPRJP1.node[0].manetrouting 	"Dymo Rreq send" 	1227386
scalar scenarioPRJP1.node[0].manetrouting 	"Dymo Rreq rec" 	947281
scalar scenarioPRJP1.node[0].manetrouting 	"Dymo Rrep send" 	8247
scalar scenarioPRJP1.node[0].manetrouting 	"Dymo Rrep rec" 	6543
scalar scenarioPRJP1.node[0].manetrouting 	"Dymo Rerr send" 	8411
scalar scenarioPRJP1.node[0].manetrouting 	"Dymo Rerr rec" 	25792
scalar scenarioPRJP1.node[0].mobility 	startTime 	0.1
scalar scenarioPRJP1.node[0].mobility 	totalTime 	1899.9
scalar scenarioPRJP1.node[0].mobility 	stopTime 	1900
scalar scenarioPRJP1.node[0].mobility 	minSpeed 	2.4756060069945e-13
scalar scenarioPRJP1.node[0].mobility 	maxSpeed 	17.465255857106
scalar scenarioPRJP1.node[0].mobility 	totalDistance 	18055.038346119
scalar scenarioPRJP1.node[0].mobility 	totalCO2Emission 	4986.406925394
scalar scenarioPRJP1.node[0].wlan.mgmt 	dataQueueLen:max 	69
attr interpolationmode  sample-hold
attr title  "data queue length, max"
scalar scenarioPRJP1.node[0].wlan.mgmt 	dataQueueLen:timeavg 	0.00050865853058529
attr interpolationmode  sample-hold
attr title  "data queue length, timeavg"
scalar scenarioPRJP1.node[0].wlan.mgmt 	dropPkByQueue:count 	0
attr interpolationmode  none
attr source  dropPkByQueue
attr title  "packets dropped by queue, count"
scalar scenarioPRJP1.node[0].wlan.mgmt 	dropPkByQueue:sum(packetBytes) 	0
attr interpolationmode  none
attr source  dropPkByQueue
attr title  "packets dropped by queue, sum(packetBytes)"
scalar scenarioPRJP1.node[0].wlan.mac 	"number of received packets" 	6845
scalar scenarioPRJP1.node[0].wlan.mac 	"number of collisions" 	58209
scalar scenarioPRJP1.node[0].wlan.mac 	"number of internal collisions" 	0
scalar scenarioPRJP1.node[0].wlan.mac 	"number of retry for AC 0" 	13127
scalar scenarioPRJP1.node[0].wlan.mac 	"number of retry for AC 1" 	19
scalar scenarioPRJP1.node[0].wlan.mac 	"number of retry for AC 2" 	0
scalar scenarioPRJP1.node[0].wlan.mac 	"number of retry for AC 3" 	0
scalar scenarioPRJP1.node[0].wlan.mac 	"sent and received bits" 	57353096
scalar scenarioPRJP1.node[0].wlan.mac 	"sent packet within AC 0" 	6396
scalar scenarioPRJP1.node[0].wlan.mac 	"sent packet within AC 1" 	18
scalar scenarioPRJP1.node[0].wlan.mac 	"sent packet within AC 2" 	0
scalar scenarioPRJP1.node[0].wlan.mac 	"sent packet within AC 3" 	0
scalar scenarioPRJP1.node[0].wlan.mac 	"sent in TXOP " 	0
scalar scenarioPRJP1.node[0].wlan.mac 	"sentWithoutRetry AC 0" 	4352
scalar scenarioPRJP1.node[0].wlan.mac 	"sentWithoutRetry AC 1" 	11
scalar scenarioPRJP1.node[0].wlan.mac 	"sentWithoutRetry AC 2" 	0
scalar scenarioPRJP1.node[0].wlan.mac 	"sentWithoutRetry AC 3" 	0
scalar scenarioPRJP1.node[0].wlan.mac 	"numGivenUp AC 0" 	1205
scalar scenarioPRJP1.node[0].wlan.mac 	"numGivenUp AC 1" 	0
scalar scenarioPRJP1.node[0].wlan.mac 	"numGivenUp AC 2" 	0
scalar scenarioPRJP1.node[0].wlan.mac 	"numGivenUp AC 3" 	0
scalar scenarioPRJP1.node[0].wlan.mac 	"numDropped AC 0" 	18
scalar scenarioPRJP1.node[0].wlan.mac 	"numDropped AC 1" 	0
scalar scenarioPRJP1.node[0].wlan.mac 	"numDropped AC 2" 	0
scalar scenarioPRJP1.node[0].wlan.mac 	"numDropped AC 3" 	0
scalar scenarioPRJP1.node[0].wlan.mac 	rcvdPkFromLL:count 	232132
attr interpolationmode  none
attr source  packetReceivedFromLower
attr title  "packets received from lower layer, count"
scalar scenarioPRJP1.node[0].wlan.mac 	rcvdPkFromLL:sum(packetBytes) 	69255685
attr interpolationmode  none
attr source  packetReceivedFromLower
attr title  "packets received from lower layer, sum(packetBytes)"
scalar scenarioPRJP1.node[0].wlan.mac 	sentDownPk:count 	52426
attr interpolationmode  none
attr source  packetSentToLower
attr title  "packets sent to lower layer, count"
scalar scenarioPRJP1.node[0].wlan.mac 	sentDownPk:sum(packetBytes) 	15387215
attr interpolationmode  none
attr source  packetSentToLower
attr title  "packets sent to lower layer, sum(packetBytes)"
scalar scenarioPRJP1.node[0].wlan.mac 	rcvdPkFromHL:count 	32453
attr interpolationmode  none
attr source  packetReceivedFromUpper
attr title  "packets received from higher layer, count"
scalar scenarioPRJP1.node[0].wlan.mac 	rcvdPkFromHL:sum(packetBytes) 	7866747
attr interpolationmode  none
attr source  packetReceivedFromUpper
attr title  "packets received from higher layer, sum(packetBytes)"
scalar scenarioPRJP1.node[0].wlan.mac 	passedUpPk:count 	88658
attr interpolationmode  none
attr source  packetSentToUpper
attr title  "packets passed to higher layer, count"
scalar scenarioPRJP1.node[0].wlan.mac 	passedUpPk:sum(packetBytes) 	15651832
attr interpolationmode  none
attr source  packetSentToUpper
attr title  "packets passed to higher layer, sum(packetBytes)"
statistic scenarioPRJP1.node[0].wlan.radio 	radioChannel:histogram
field count 1
field mean 3
field stddev -nan
field sum 3
field sqrsum 9
field min 3
field max 3
attr interpolationmode  sample-hold
attr source  radioChannelChanged
attr title  "Radio channel, histogram"
bin	-INF	0
bin	2	0
bin	3	1
bin	4	0
scalar scenarioPRJP1.node[0].wlan.radio 	transmissionState:count 	209704
attr interpolationmode  sample-hold
attr source  transmissionStateChanged
attr title  "Radio transmission state, count"
scalar scenarioPRJP1.node[0].wlan.radio 	receptionState:count 	942770
attr interpolationmode  sample-hold
attr source  receptionStateChanged
attr title  "Radio reception state, count"
scalar scenarioPRJP1.node[0].wlan.radio 	radioMode:count 	104854
attr interpolationmode  sample-hold
attr source  radioModeChanged
attr title  "Radio mode, count"
statistic scenarioPRJP1.node[0].wlan.radio 	symbolErrorRate:histogram
field count 0
field mean -nan
field stddev -nan
field sum 0
field sqrsum 0
field min -nan
field max -nan
attr source  symbolErrorRate
attr title  "Symbol error rate, histogram"
bin	-INF	0
bin	-0.5	0
bin	-0.46666666666667	0
bin	-0.43333333333333	0
bin	-0.4	0
bin	-0.36666666666667	0
bin	-0.33333333333333	0
bin	-0.3	0
bin	-0.26666666666667	0
bin	-0.23333333333333	0
bin	-0.2	0
bin	-0.16666666666667	0
bin	-0.13333333333333	0
bin	-0.1	0
bin	-0.066666666666667	0
bin	-0.033333333333333	0
bin	0	0
bin	0.033333333333333	0
bin	0.066666666666667	0
bin	0.1	0
bin	0.13333333333333	0
bin	0.16666666666667	0
bin	0.2	0
bin	0.23333333333333	0
bin	0.26666666666667	0
bin	0.3	0
bin	0.33333333333333	0
bin	0.36666666666667	0
bin	0.4	0
bin	0.43333333333333	0
bin	0.46666666666667	0
bin	0.5	0
statistic scenarioPRJP1.node[0].wlan.radio 	bitErrorRate:histogram
field count 0
field mean -nan
field stddev -nan
field sum 0
field sqrsum 0
field min -nan
field max -nan
attr source  bitErrorRate
attr title  "Bit error rate, histogram"
bin	-INF	0
bin	-0.5	0
bin	-0.46666666666667	0
bin	-0.43333333333333	0
bin	-0.4	0
bin	-0.36666666666667	0
bin	-0.33333333333333	0
bin	-0.3	0
bin	-0.26666666666667	0
bin	-0.23333333333333	0
bin	-0.2	0
bin	-0.16666666666667	0
bin	-0.13333333333333	0
bin	-0.1	0
bin	-0.066666666666667	0
bin	-0.033333333333333	0
bin	0	0
bin	0.033333333333333	0
bin	0.066666666666667	0
bin	0.1	0
bin	0.13333333333333	0
bin	0.16666666666667	0
bin	0.2	0
bin	0.23333333333333	0
bin	0.26666666666667	0
bin	0.3	0
bin	0.33333333333333	0
bin	0.36666666666667	0
bin	0.4	0
bin	0.43333333333333	0
bin	0.46666666666667	0
bin	0.5	0
statistic scenarioPRJP1.node[0].wlan.radio 	packetErrorRate:histogram
field count 232132
field mean 0.22536917661946
field stddev 0.40739962908094
field sum 52315.397707028
field sqrsum 50318.094963587
field min 0
field max 1
attr source  packetErrorRate
attr title  "Packet error rate, histogram"
bin	-INF	0
bin	-0.5	0
bin	-0.43333333333333	0
bin	-0.36666666666667	0
bin	-0.3	0
bin	-0.23333333333333	0
bin	-0.16666666666667	0
bin	-0.1	0
bin	-0.033333333333333	171640
bin	0.033333333333333	3351
bin	0.1	1531
bin	0.16666666666667	1123
bin	0.23333333333333	917
bin	0.3	715
bin	0.36666666666667	578
bin	0.43333333333333	544
bin	0.5	591
bin	0.56666666666667	542
bin	0.63333333333333	525
bin	0.7	519
bin	0.76666666666667	564
bin	0.83333333333333	716
bin	0.9	1133
bin	0.96666666666667	47143
bin	1.0333333333333	0
bin	1.1	0
bin	1.1666666666667	0
bin	1.2333333333333	0
bin	1.3	0
bin	1.3666666666667	0
bin	1.4333333333333	0
bin	1.5	0
statistic scenarioPRJP1.node[0].wlan.radio 	minSNIR:histogram
field count 232132
field mean 13014.965811717
field stddev 193423.34153623
field sum 3021190043.8054
field sqrsum 8.7239423941381e+15
field min 0.00010705336548889
field max 35111214.425727
attr source  minSNIR
attr title  "Min SNIR, histogram"
bin	-INF	0
bin	-32896.638313425	0
bin	-28510.401980514	0
bin	-24124.165647603	0
bin	-19737.929314692	0
bin	-15351.692981781	0
bin	-10965.45664887	0
bin	-6579.2203159583	0
bin	-2192.9839830472	212095
bin	2193.252349864	7429
bin	6579.4886827751	3135
bin	10965.725015686	2191
bin	15351.961348597	832
bin	19738.197681509	455
bin	24124.43401442	342
bin	28510.670347331	219
bin	32896.906680242	334
bin	37283.143013153	140
bin	41669.379346064	282
bin	46055.615678976	231
bin	50441.852011887	207
bin	54828.088344798	186
bin	59214.324677709	192
bin	63600.56101062	117
bin	67986.797343531	114
bin	72373.033676443	146
bin	76759.270009354	507
bin	81145.506342265	67
bin	85531.742675176	232
bin	89917.979008087	126
bin	94304.215340998	360
bin	98690.45167391	2193
scalar scenarioPRJP1.node[0].lo0.lo 	droppedPkBitError:count 	0
attr interpolationmode  none
attr source  dropPkBitError
attr title  "packets dropped/bit error, count"
scalar scenarioPRJP1.node[0].lo0.lo 	droppedPkBitError:sum(packetBytes) 	0
attr interpolationmode  none
attr source  dropPkBitError
attr title  "packets dropped/bit error, sum(packetBytes)"
scalar scenarioPRJP1.node[0].lo0.lo 	rcvdPkFromHL:count 	0
attr interpolationmode  none
attr source  packetReceivedFromUpper
attr title  "packets received from higher layer, count"
scalar scenarioPRJP1.node[0].lo0.lo 	rcvdPkFromHL:sum(packetBytes) 	0
attr interpolationmode  none
attr source  packetReceivedFromUpper
attr title  "packets received from higher layer, sum(packetBytes)"
scalar scenarioPRJP1.node[0].lo0.lo 	passedUpPk:count 	0
attr interpolationmode  none
attr source  packetSentToUpper
attr title  "packets passed to higher layer, count"
scalar scenarioPRJP1.node[0].lo0.lo 	passedUpPk:sum(packetBytes) 	0
attr interpolationmode  none
attr source  packetSentToUpper
attr title  "packets passed to higher layer, sum(packetBytes)"
scalar scenarioPRJP1.node[20].app 	"Total sent" 	5002
scalar scenarioPRJP1.node[20].app 	"Total received" 	1070
scalar scenarioPRJP1.node[20].app 	"Total deleted" 	214
scalar scenarioPRJP1.node[20].app 	dropPk:count 	214
attr interpolationmode  none
attr source  dropPk
attr title  "packets dropped, count"
scalar scenarioPRJP1.node[20].app 	dropPk:sum(packetBytes) 	109568
attr interpolationmode  none
attr source  dropPk
attr title  "packets dropped, sum(packetBytes)"
scalar scenarioPRJP1.node[20].app 	outOfOrderPk:count 	0
attr interpolationmode  none
attr source  outOfOrderPk
attr title  "packets received out of order, count"
scalar scenarioPRJP1.node[20].app 	outOfOrderPk:sum(packetBytes) 	0
attr interpolationmode  none
attr source  outOfOrderPk
attr title  "packets received out of order, sum(packetBytes)"
scalar scenarioPRJP1.node[20].app 	rcvdPk:count 	1070
attr interpolationmode  none
attr source  rcvdPk
attr title  "packets received, count"
scalar scenarioPRJP1.node[20].app 	rcvdPk:sum(packetBytes) 	547840
attr interpolationmode  none
attr source  rcvdPk
attr title  "packets received, sum(packetBytes)"
statistic scenarioPRJP1.node[20].app 	endToEndDelay:histogram
field count 1070
field mean 4.705943211729
field stddev 5.957884050493
field sum 5035.35923655
field sqrsum 61641.747359758
field min 0.000891068821
field max 19.979352305699
attr interpolationmode  none
attr source  messageAge(rcvdPk)
attr title  "delay, histogram"
attr unit  s
bin	-INF	0
bin	-9.632767861737	0
bin	-8.3482787558054	0
bin	-7.0637896498738	0
bin	-5.7793005439422	0
bin	-4.4948114380106	0
bin	-3.210322332079	0
bin	-1.9258332261474	0
bin	-0.6413441202158	472
bin	0.6431449857158	83
bin	1.9276340916474	65
bin	3.212123197579	53
bin	4.4966123035106	53
bin	5.7811014094422	33
bin	7.0655905153738	45
bin	8.3500796213054	34
bin	9.634568727237	34
bin	10.919057833169	29
bin	12.2035469391	28
bin	13.488036045032	26
bin	14.772525150963	29
bin	16.057014256895	30
bin	17.341503362827	29
bin	18.625992468758	25
bin	19.91048157469	2
bin	21.194970680621	0
bin	22.479459786553	0
bin	23.763948892485	0
bin	25.048437998416	0
bin	26.332927104348	0
bin	27.617416210279	0
bin	28.901905316211	0
scalar scenarioPRJP1.node[20].app 	sentPk:count 	5002
attr interpolationmode  none
attr source  sentPk
attr title  "packets sent, count"
scalar scenarioPRJP1.node[20].app 	sentPk:sum(packetBytes) 	2561024
attr interpolationmode  none
attr source  sentPk
attr title  "packets sent, sum(packetBytes)"
scalar scenarioPRJP1.node[20].udp 	droppedPkBadChecksum:count 	0
attr interpolationmode  none
attr title  "packets dropped (checksum error), count"
scalar scenarioPRJP1.node[20].udp 	droppedPkWrongPort:count 	16
attr interpolationmode  none
attr title  "packets dropped (wrong port), count"
scalar scenarioPRJP1.node[20].udp 	passedUpPk:count 	1284
attr interpolationmode  none
attr title  "packets passed up, count"
scalar scenarioPRJP1.node[20].udp 	rcvdPk:count 	1300
attr interpolationmode  none
attr source  rcvdPk
attr title  "packets received, count"
scalar scenarioPRJP1.node[20].udp 	rcvdPk:sum(packetBytes) 	676000
attr interpolationmode  none
attr source  rcvdPk
attr title  "packets received, sum(packetBytes)"
scalar scenarioPRJP1.node[20].udp 	sentPk:count 	5002
attr interpolationmode  none
attr source  sentPk
attr title  "packets sent, count"
scalar scenarioPRJP1.node[20].udp 	sentPk:sum(packetBytes) 	2601040
attr interpolationmode  none
attr source  sentPk
attr title  "packets sent, sum(packetBytes)"
scalar scenarioPRJP1.node[20].networkLayer.arp 	failedARPResolution:count 	15
attr title  "ARP failed resolutions, count"
scalar scenarioPRJP1.node[20].networkLayer.arp 	completedARPResolution:count 	519
attr title  "ARP completed resolutions, count"
scalar scenarioPRJP1.node[20].networkLayer.arp 	initiatedARPResolution:count 	104
attr title  "ARP initiated resolutions, count"
scalar scenarioPRJP1.node[20].networkLayer.arp 	sentReply:count 	74
attr title  "ARP replies sent, count"
scalar scenarioPRJP1.node[20].networkLayer.arp 	sentReq:count 	175
attr title  "ARP request sent, count"
scalar scenarioPRJP1.node[20].mobility 	startTime 	2.5
scalar scenarioPRJP1.node[20].mobility 	totalTime 	1897.5
scalar scenarioPRJP1.node[20].mobility 	stopTime 	1900
scalar scenarioPRJP1.node[20].mobility 	minSpeed 	0
scalar scenarioPRJP1.node[20].mobility 	maxSpeed 	17.391326604796
scalar scenarioPRJP1.node[20].mobility 	totalDistance 	18190.549494598
scalar scenarioPRJP1.node[20].mobility 	totalCO2Emission 	4825.182501438
scalar scenarioPRJP1.node[20].wlan.mgmt 	dataQueueLen:max 	47
attr interpolationmode  sample-hold
attr title  "data queue length, max"
scalar scenarioPRJP1.node[20].wlan.mgmt 	dataQueueLen:timeavg 	6.2055467615283e-07
attr interpolationmode  sample-hold
attr title  "data queue length, timeavg"
scalar scenarioPRJP1.node[20].wlan.mgmt 	dropPkByQueue:count 	0
attr interpolationmode  none
attr source  dropPkByQueue
attr title  "packets dropped by queue, count"
scalar scenarioPRJP1.node[20].wlan.mgmt 	dropPkByQueue:sum(packetBytes) 	0
attr interpolationmode  none
attr source  dropPkByQueue
attr title  "packets dropped by queue, sum(packetBytes)"
scalar scenarioPRJP1.node[20].wlan.mac 	"number of received packets" 	5603
scalar scenarioPRJP1.node[20].wlan.mac 	"number of collisions" 	43080
scalar scenarioPRJP1.node[20].wlan.mac 	"number of internal collisions" 	6
scalar scenarioPRJP1.node[20].wlan.mac 	"number of retry for AC 0" 	10555
scalar scenarioPRJP1.node[20].wlan.mac 	"number of retry for AC 1" 	40
scalar scenarioPRJP1.node[20].wlan.mac 	"number of retry for AC 2" 	0
scalar scenarioPRJP1.node[20].wlan.mac 	"number of retry for AC 3" 	0
scalar scenarioPRJP1.node[20].wlan.mac 	"sent and received bits" 	51681752
scalar scenarioPRJP1.node[20].wlan.mac 	"sent packet within AC 0" 	5625
scalar scenarioPRJP1.node[20].wlan.mac 	"sent packet within AC 1" 	63
scalar scenarioPRJP1.node[20].wlan.mac 	"sent packet within AC 2" 	0
scalar scenarioPRJP1.node[20].wlan.mac 	"sent packet within AC 3" 	0
scalar scenarioPRJP1.node[20].wlan.mac 	"sent in TXOP " 	0
scalar scenarioPRJP1.node[20].wlan.mac 	"sentWithoutRetry AC 0" 	3926
scalar scenarioPRJP1.node[20].wlan.mac 	"sentWithoutRetry AC 1" 	51
scalar scenarioPRJP1.node[20].wlan.mac 	"sentWithoutRetry AC 2" 	0
scalar scenarioPRJP1.node[20].wlan.mac 	"sentWithoutRetry AC 3" 	0
scalar scenarioPRJP1.node[20].wlan.mac 	"numGivenUp AC 0" 	973
scalar scenarioPRJP1.node[20].wlan.mac 	"numGivenUp AC 1" 	1
scalar scenarioPRJP1.node[20].wlan.mac 	"numGivenUp AC 2" 	0
scalar scenarioPRJP1.node[20].wlan.mac 	"numGivenUp AC 3" 	0
scalar scenarioPRJP1.node[20].wlan.mac 	"numDropped AC 0" 	2
scalar scenarioPRJP1.node[20].wlan.mac 	"numDropped AC 1" 	0
scalar scenarioPRJP1.node[20].wlan.mac 	"numDropped AC 2" 	0
scalar scenarioPRJP1.node[20].wlan.mac 	"numDropped AC 3" 	0
scalar scenarioPRJP1.node[20].wlan.mac 	rcvdPkFromLL:count 	175437
attr interpolationmode  none
attr source  packetReceivedFromLower
attr title  "packets received from lower layer, count"
scalar scenarioPRJP1.node[20].wlan.mac 	rcvdPkFromLL:sum(packetBytes) 	53810093
attr interpolationmode  none
attr source  packetReceivedFromLower
attr title  "packets received from lower layer, sum(packetBytes)"
scalar scenarioPRJP1.node[20].wlan.mac 	sentDownPk:count 	45419
attr interpolationmode  none
attr source  packetSentToLower
attr title  "packets sent to lower layer, count"
scalar scenarioPRJP1.node[20].wlan.mac 	sentDownPk:sum(packetBytes) 	13057761
attr interpolationmode  none
attr source  packetSentToLower
attr title  "packets sent to lower layer, sum(packetBytes)"
scalar scenarioPRJP1.node[20].wlan.mac 	rcvdPkFromHL:count 	29229
attr interpolationmode  none
attr source  packetReceivedFromUpper
attr title  "packets received from higher layer, count"
scalar scenarioPRJP1.node[20].wlan.mac 	rcvdPkFromHL:sum(packetBytes) 	7014703
attr interpolationmode  none
attr source  packetReceivedFromUpper
attr title  "packets received from higher layer, sum(packetBytes)"
scalar scenarioPRJP1.node[20].wlan.mac 	passedUpPk:count 	64658
attr interpolationmode  none
attr source  packetSentToUpper
attr title  "packets passed to higher layer, count"
scalar scenarioPRJP1.node[20].wlan.mac 	passedUpPk:sum(packetBytes) 	11793185
attr interpolationmode  none
attr source  packetSentToUpper
attr title  "packets passed to higher layer, sum(packetBytes)"
statistic scenarioPRJP1.node[20].wlan.radio 	radioChannel:histogram
field count 1
field mean 3
field stddev -nan
field sum 3
field sqrsum 9
field min 3
field max 3
attr interpolationmode  sample-hold
attr source  radioChannelChanged
attr title  "Radio channel, histogram"
bin	-INF	0
bin	2	0
bin	3	1
bin	4	0
scalar scenarioPRJP1.node[20].wlan.radio 	transmissionState:count 	181676
attr interpolationmode  sample-hold
attr source  transmissionStateChanged
attr title  "Radio transmission state, count"
scalar scenarioPRJP1.node[20].wlan.radio 	receptionState:count 	805921
attr interpolationmode  sample-hold
attr source  receptionStateChanged
attr title  "Radio reception state, count"
scalar scenarioPRJP1.node[20].wlan.radio 	radioMode:count 	90840
attr interpolationmode  sample-hold
attr source  radioModeChanged
attr title  "Radio mode, count"
statistic scenarioPRJP1.node[20].wlan.radio 	symbolErrorRate:histogram
field count 0
field mean -nan
field stddev -nan
field sum 0
field sqrsum 0
field min -nan
field max -nan
attr source  symbolErrorRate
attr title  "Symbol error rate, histogram"
bin	-INF	0
bin	-0.5	0
bin	-0.46666666666667	0
bin	-0.43333333333333	0
bin	-0.4	0
bin	-0.36666666666667	0
bin	-0.33333333333333	0
bin	-0.3	0
bin	-0.26666666666667	0
bin	-0.23333333333333	0
bin	-0.2	0
bin	-0.16666666666667	0
bin	-0.13333333333333	0
bin	-0.1	0
bin	-0.066666666666667	0
bin	-0.033333333333333	0
bin	0	0
bin	0.033333333333333	0
bin	0.066666666666667	0
bin	0.1	0
bin	0.13333333333333	0
bin	0.16666666666667	0
bin	0.2	0
bin	0.23333333333333	0
bin	0.26666666666667	0
bin	0.3	0
bin	0.33333333333333	0
bin	0.36666666666667	0
bin	0.4	0
bin	0.43333333333333	0
bin	0.46666666666667	0
bin	0.5	0
statistic scenarioPRJP1.node[20].wlan.radio 	bitErrorRate:histogram
field count 0
field mean -nan
field stddev -nan
field sum 0
field sqrsum 0
field min -nan
field max -nan
attr source  bitErrorRate
attr title  "Bit error rate, histogram"
bin	-INF	0
bin	-0.5	0
bin	-0.46666666666667	0
bin	-0.43333333333333	0
bin	-0.4	0
bin	-0.36666666666667	0
bin	-0.33333333333333	0
bin	-0.3	0
bin	-0.26666666666667	0
bin	-0.23333333333333	0
bin	-0.2	0
bin	-0.16666666666667	0
bin	-0.13333333333333	0
bin	-0.1	0
bin	-0.066666666666667	0
bin	-0.033333333333333	0
bin	0	0
bin	0.033333333333333	0
bin	0.066666666666667	0
bin	0.1	0
bin	0.13333333333333	0
bin	0.16666666666667	0
bin	0.2	0
bin	0.23333333333333	0
bin	0.26666666666667	0
bin	0.3	0
bin	0.33333333333333	0
bin	0.36666666666667	0
bin	0.4	0
bin	0.43333333333333	0
bin	0.46666666666667	0
bin	0.5	0
statistic scenarioPRJP1.node[20].wlan.radio 	packetErrorRate:histogram
field count 175437
field mean 0.21974459385032
field stddev 0.40334959085795
field sum 38551.332311319
field sqrsum 37013.286268169
field min 0
field max 1
attr source  packetErrorRate
attr title  "Packet error rate, histogram"
bin	-INF	62102
bin	-2.8421709430404e-14	0
bin	-2.4632148173017e-14	0
bin	-2.084258691563e-14	0
bin	-1.7053025658242e-14	0
bin	-1.3263464400855e-14	0
bin	-9.473903143468e-15	0
bin	-5.6843418860808e-15	0
bin	-1.8947806286936e-15	92135
bin	1.8947806286936e-15	0
bin	5.6843418860808e-15	0
bin	9.473903143468e-15	0
bin	1.3263464400855e-14	156
bin	1.7053025658242e-14	0
bin	2.084258691563e-14	0
bin	2.4632148173017e-14	0
bin	2.8421709430404e-14	89
bin	3.2211270687791e-14	0
bin	3.6000831945178e-14	0
bin	3.9790393202566e-14	0
bin	4.3579954459953e-14	54
bin	4.736951571734e-14	0
bin	5.1159076974727e-14	0
bin	5.4948638232114e-14	3
bin	5.8738199489502e-14	49
bin	6.2527760746889e-14	0
bin	6.6317322004276e-14	0
bin	7.0106883261663e-14	1
bin	7.389644451905e-14	50
bin	7.7686005776438e-14	55
bin	8.1475567033825e-14	1
bin	8.5265128291212e-14	20742
statistic scenarioPRJP1.node[20].wlan.radio 	minSNIR:histogram
field count 175437
field mean 9739.3895595238
field stddev 141552.00622891
field sum 1708649286.1542
field sqrsum 3.5318471519425e+15
field min 0.00014238335265597
field max 3594192.6804074
attr source  minSNIR
attr title  "Min SNIR, histogram"
bin	-INF	0
bin	-82408.455452574	0
bin	-71419.695244227	0
bin	-60430.935035879	0
bin	-49442.174827532	0
bin	-38453.414619185	0
bin	-27464.654410838	0
bin	-16475.89420249	0
bin	-5487.1339941433	165123
bin	5501.6262142039	5560
bin	16490.386422551	1405
bin	27479.146630898	824
bin	38467.906839246	364
bin	49456.667047593	334
bin	60445.42725594	170
bin	71434.187464287	218
bin	82422.947672634	105
bin	93411.707880982	49
bin	104400.46808933	76
bin	115389.22829768	46
bin	126377.98850602	43
bin	137366.74871437	52
bin	148355.50892272	49
bin	159344.26913106	35
bin	170333.02933941	18
bin	181321.78954776	26
bin	192310.54975611	26
bin	203299.30996445	26
bin	214288.0701728	7
bin	225276.83038115	4
bin	236265.5905895	24
bin	247254.35079784	853
scalar scenarioPRJP1.node[20].lo0.lo 	droppedPkBitError:count 	0
attr interpolationmode  none
attr source  dropPkBitError
attr title  "packets dropped/bit error, count"
scalar scenarioPRJP1.node[20].lo0.lo 	droppedPkBitError:sum(packetBytes) 	0
attr interpolationmode  none
attr source  dropPkBitError
attr title  "packets dropped/bit error, sum(packetBytes)"
scalar scenarioPRJP1.node[20].lo0.lo 	rcvdPkFromHL:count 	1
attr interpolationmode  none
attr source  packetReceivedFromUpper
attr title  "packets received from higher layer, count"
scalar scenarioPRJP1.node[20].lo0.lo 	rcvdPkFromHL:sum(packetBytes) 	56
attr interpolationmode  none
attr source  packetReceivedFromUpper
attr title  "packets received from higher layer, sum(packetBytes)"
scalar scenarioPRJP1.node[20].lo0.lo 	passedUpPk:count 	1
attr interpolationmode  none
attr source  packetSentToUpper
attr title  "packets passed to higher layer, count"
scalar scenarioPRJP1.node[20].lo0.lo 	passedUpPk:sum(packetBytes) 	56
attr interpolationmode  none
attr source  packetSentToUpper
attr title  "packets passed to higher layer, sum(packetBytes)"
scalar scenarioPRJP1.node[1].app 	"Total sent" 	5037
scalar scenarioPRJP1.node[1].app 	"Total received" 	1229
scalar scenarioPRJP1.node[1].app 	"Total deleted" 	191
scalar scenarioPRJP1.node[1].app 	dropPk:count 	191
attr interpolationmode  none
attr source  dropPk
attr title  "packets dropped, count"
scalar scenarioPRJP1.node[1].app 	dropPk:sum(packetBytes) 	97792
attr interpolationmode  none
attr source  dropPk
attr title  "packets dropped, sum(packetBytes)"
scalar scenarioPRJP1.node[1].app 	outOfOrderPk:count 	1
attr interpolationmode  none
attr source  outOfOrderPk
attr title  "packets received out of order, count"
scalar scenarioPRJP1.node[1].app 	outOfOrderPk:sum(packetBytes) 	512
attr interpolationmode  none
attr source  outOfOrderPk
attr title  "packets received out of order, sum(packetBytes)"
scalar scenarioPRJP1.node[1].app 	rcvdPk:count 	1229
attr interpolationmode  none
attr source  rcvdPk
attr title  "packets received, count"
scalar scenarioPRJP1.node[1].app 	rcvdPk:sum(packetBytes) 	629248
attr interpolationmode  none
attr source  rcvdPk
attr title  "packets received, sum(packetBytes)"
statistic scenarioPRJP1.node[1].app 	endToEndDelay:histogram
field count 1229
field mean 4.3930381183503
field stddev 5.7582426786411
field sum 5399.0438474525
field sqrsum 64435.441964744
field min 0.000891012933
field max 19.880699263726
attr interpolationmode  none
attr source  messageAge(rcvdPk)
attr title  "delay, histogram"
attr unit  s
bin	-INF	0
bin	-9.8987636749595	0
bin	-8.5788085130326	0
bin	-7.2588533511058	0
bin	-5.9388981891789	0
bin	-4.618943027252	0
bin	-3.2989878653252	0
bin	-1.9790327033983	0
bin	-0.65907754147143	581
bin	0.66087762045543	94
bin	1.9808327823823	77
bin	3.3007879443092	55
bin	4.620743106236	46
bin	5.9406982681629	39
bin	7.2606534300898	50
bin	8.5806085920166	45
bin	9.9005637539435	35
bin	11.22051891587	33
bin	12.540474077797	37
bin	13.860429239724	37
bin	15.180384401651	31
bin	16.500339563578	28
bin	17.820294725505	31
bin	19.140249887432	10
bin	20.460205049358	0
bin	21.780160211285	0
bin	23.100115373212	0
bin	24.420070535139	0
bin	25.740025697066	0
bin	27.059980858993	0
bin	28.37993602092	0
bin	29.699891182846	0
scalar scenarioPRJP1.node[1].app 	sentPk:count 	5037
attr interpolationmode  none
attr source  sentPk
attr title  "packets sent, count"
scalar scenarioPRJP1.node[1].app 	sentPk:sum(packetBytes) 	2578944
attr interpolationmode  none
attr source  sentPk
attr title  "packets sent, sum(packetBytes)"
scalar scenarioPRJP1.node[1].udp 	droppedPkBadChecksum:count 	0
attr interpolationmode  none
attr title  "packets dropped (checksum error), count"
scalar scenarioPRJP1.node[1].udp 	droppedPkWrongPort:count 	9
attr interpolationmode  none
attr title  "packets dropped (wrong port), count"
scalar scenarioPRJP1.node[1].udp 	passedUpPk:count 	1421
attr interpolationmode  none
attr title  "packets passed up, count"
scalar scenarioPRJP1.node[1].udp 	rcvdPk:count 	1430
attr interpolationmode  none
attr source  rcvdPk
attr title  "packets received, count"
scalar scenarioPRJP1.node[1].udp 	rcvdPk:sum(packetBytes) 	743600
attr interpolationmode  none
attr source  rcvdPk
attr title  "packets received, sum(packetBytes)"
scalar scenarioPRJP1.node[1].udp 	sentPk:count 	5037
attr interpolationmode  none
attr source  sentPk
attr title  "packets sent, count"
scalar scenarioPRJP1.node[1].udp 	sentPk:sum(packetBytes) 	2619240
attr interpolationmode  none
attr source  sentPk
attr title  "packets sent, sum(packetBytes)"
scalar scenarioPRJP1.node[1].networkLayer.arp 	failedARPResolution:count 	8
attr title  "ARP failed resolutions, count"
scalar scenarioPRJP1.node[1].networkLayer.arp 	completedARPResolution:count 	716
attr title  "ARP completed resolutions, count"
scalar scenarioPRJP1.node[1].networkLayer.arp 	initiatedARPResolution:count 	97
attr title  "ARP initiated resolutions, count"
scalar scenarioPRJP1.node[1].networkLayer.arp 	sentReply:count 	80
attr title  "ARP replies sent, count"
scalar scenarioPRJP1.node[1].networkLayer.arp 	sentReq:count 	155
attr title  "ARP request sent, count"
scalar scenarioPRJP1.node[1].mobility 	startTime 	0.1
scalar scenarioPRJP1.node[1].mobility 	totalTime 	1899.9
scalar scenarioPRJP1.node[1].mobility 	stopTime 	1900
scalar scenarioPRJP1.node[1].mobility 	minSpeed 	2.4754390753155e-13
scalar scenarioPRJP1.node[1].mobility 	maxSpeed 	20.124772810796
scalar scenarioPRJP1.node[1].mobility 	totalDistance 	18711.396425695
scalar scenarioPRJP1.node[1].mobility 	totalCO2Emission 	5319.4938922915
scalar scenarioPRJP1.node[1].wlan.mgmt 	dataQueueLen:max 	43
attr interpolationmode  sample-hold
attr title  "data queue length, max"
scalar scenarioPRJP1.node[1].wlan.mgmt 	dataQueueLen:timeavg 	0
attr interpolationmode  sample-hold
attr title  "data queue length, timeavg"
scalar scenarioPRJP1.node[1].wlan.mgmt 	dropPkByQueue:count 	0
attr interpolationmode  none
attr source  dropPkByQueue
attr title  "packets dropped by queue, count"
scalar scenarioPRJP1.node[1].wlan.mgmt 	dropPkByQueue:sum(packetBytes) 	0
attr interpolationmode  none
attr source  dropPkByQueue
attr title  "packets dropped by queue, sum(packetBytes)"
scalar scenarioPRJP1.node[1].wlan.mac 	"number of received packets" 	5943
scalar scenarioPRJP1.node[1].wlan.mac 	"number of collisions" 	51500
scalar scenarioPRJP1.node[1].wlan.mac 	"number of internal collisions" 	0
scalar scenarioPRJP1.node[1].wlan.mac 	"number of retry for AC 0" 	10536
scalar scenarioPRJP1.node[1].wlan.mac 	"number of retry for AC 1" 	6
scalar scenarioPRJP1.node[1].wlan.mac 	"number of retry for AC 2" 	0
scalar scenarioPRJP1.node[1].wlan.mac 	"number of retry for AC 3" 	0
scalar scenarioPRJP1.node[1].wlan.mac 	"sent and received bits" 	54437664
scalar scenarioPRJP1.node[1].wlan.mac 	"sent packet within AC 0" 	5951
scalar scenarioPRJP1.node[1].wlan.mac 	"sent packet within AC 1" 	19
scalar scenarioPRJP1.node[1].wlan.mac 	"sent packet within AC 2" 	0
scalar scenarioPRJP1.node[1].wlan.mac 	"sent packet within AC 3" 	0
scalar scenarioPRJP1.node[1].wlan.mac 	"sent in TXOP " 	0
scalar scenarioPRJP1.node[1].wlan.mac 	"sentWithoutRetry AC 0" 	4185
scalar scenarioPRJP1.node[1].wlan.mac 	"sentWithoutRetry AC 1" 	16
scalar scenarioPRJP1.node[1].wlan.mac 	"sentWithoutRetry AC 2" 	0
scalar scenarioPRJP1.node[1].wlan.mac 	"sentWithoutRetry AC 3" 	0
scalar scenarioPRJP1.node[1].wlan.mac 	"numGivenUp AC 0" 	923
scalar scenarioPRJP1.node[1].wlan.mac 	"numGivenUp AC 1" 	0
scalar scenarioPRJP1.node[1].wlan.mac 	"numGivenUp AC 2" 	0
scalar scenarioPRJP1.node[1].wlan.mac 	"numGivenUp AC 3" 	0
scalar scenarioPRJP1.node[1].wlan.mac 	"numDropped AC 0" 	0
scalar scenarioPRJP1.node[1].wlan.mac 	"numDropped AC 1" 	0
scalar scenarioPRJP1.node[1].wlan.mac 	"numDropped AC 2" 	0
scalar scenarioPRJP1.node[1].wlan.mac 	"numDropped AC 3" 	0
scalar scenarioPRJP1.node[1].wlan.mac 	rcvdPkFromLL:count 	208170
attr interpolationmode  none
attr source  packetReceivedFromLower
attr title  "packets received from lower layer, count"
scalar scenarioPRJP1.node[1].wlan.mac 	rcvdPkFromLL:sum(packetBytes) 	63051460
attr interpolationmode  none
attr source  packetReceivedFromLower
attr title  "packets received from lower layer, sum(packetBytes)"
scalar scenarioPRJP1.node[1].wlan.mac 	sentDownPk:count 	47183
attr interpolationmode  none
attr source  packetSentToLower
attr title  "packets sent to lower layer, count"
scalar scenarioPRJP1.node[1].wlan.mac 	sentDownPk:sum(packetBytes) 	13368412
attr interpolationmode  none
attr source  packetSentToLower
attr title  "packets sent to lower layer, sum(packetBytes)"
scalar scenarioPRJP1.node[1].wlan.mac 	rcvdPkFromHL:count 	30698
attr interpolationmode  none
attr source  packetReceivedFromUpper
attr title  "packets received from higher layer, count"
scalar scenarioPRJP1.node[1].wlan.mac 	rcvdPkFromHL:sum(packetBytes) 	7330007
attr interpolationmode  none
attr source  packetReceivedFromUpper
attr title  "packets received from higher layer, sum(packetBytes)"
scalar scenarioPRJP1.node[1].wlan.mac 	passedUpPk:count 	75946
attr interpolationmode  none
attr source  packetSentToUpper
attr title  "packets passed to higher layer, count"
scalar scenarioPRJP1.node[1].wlan.mac 	passedUpPk:sum(packetBytes) 	13633658
attr interpolationmode  none
attr source  packetSentToUpper
attr title  "packets passed to higher layer, sum(packetBytes)"
statistic scenarioPRJP1.node[1].wlan.radio 	radioChannel:histogram
field count 1
field mean 3
field stddev -nan
field sum 3
field sqrsum 9
field min 3
field max 3
attr interpolationmode  sample-hold
attr source  radioChannelChanged
attr title  "Radio channel, histogram"
bin	-INF	0
bin	2	0
bin	3	1
bin	4	0
scalar scenarioPRJP1.node[1].wlan.radio 	transmissionState:count 	188732
attr interpolationmode  sample-hold
attr source  transmissionStateChanged
attr title  "Radio transmission state, count"
scalar scenarioPRJP1.node[1].wlan.radio 	receptionState:count 	898331
attr interpolationmode  sample-hold
attr source  receptionStateChanged
attr title  "Radio reception state, count"
scalar scenarioPRJP1.node[1].wlan.radio 	radioMode:count 	94368
attr interpolationmode  sample-hold
attr source  radioModeChanged
attr title  "Radio mode, count"
statistic scenarioPRJP1.node[1].wlan.radio 	symbolErrorRate:histogram
field count 0
field mean -nan
field stddev -nan
field sum 0
field sqrsum 0
field min -nan
field max -nan
attr source  symbolErrorRate
attr title  "Symbol error rate, histogram"
bin	-INF	0
bin	-0.5	0
bin	-0.46666666666667	0
bin	-0.43333333333333	0
bin	-0.4	0
bin	-0.36666666666667	0
bin	-0.33333333333333	0
bin	-0.3	0
bin	-0.26666666666667	0
bin	-0.23333333333333	0
bin	-0.2	0
bin	-0.16666666666667	0
bin	-0.13333333333333	0
bin	-0.1	0
bin	-0.066666666666667	0
bin	-0.033333333333333	0
bin	0	0
bin	0.033333333333333	0
bin	0.066666666666667	0
bin	0.1	0
bin	0.13333333333333	0
bin	0.16666666666667	0
bin	0.2	0
bin	0.23333333333333	0
bin	0.26666666666667	0
bin	0.3	0
bin	0.33333333333333	0
bin	0.36666666666667	0
bin	0.4	0
bin	0.43333333333333	0
bin	0.46666666666667	0
bin	0.5	0
statistic scenarioPRJP1.node[1].wlan.radio 	bitErrorRate:histogram
field count 0
field mean -nan
field stddev -nan
field sum 0
field sqrsum 0
field min -nan
field max -nan
attr source  bitErrorRate
attr title  "Bit error rate, histogram"
bin	-INF	0
bin	-0.5	0
bin	-0.46666666666667	0
bin	-0.43333333333333	0
bin	-0.4	0
bin	-0.36666666666667	0
bin	-0.33333333333333	0
bin	-0.3	0
bin	-0.26666666666667	0
bin	-0.23333333333333	0
bin	-0.2	0
bin	-0.16666666666667	0
bin	-0.13333333333333	0
bin	-0.1	0
bin	-0.066666666666667	0
bin	-0.033333333333333	0
bin	0	0
bin	0.033333333333333	0
bin	0.066666666666667	0
bin	0.1	0
bin	0.13333333333333	0
bin	0.16666666666667	0
bin	0.2	0
bin	0.23333333333333	0
bin	0.26666666666667	0
bin	0.3	0
bin	0.33333333333333	0
bin	0.36666666666667	0
bin	0.4	0
bin	0.43333333333333	0
bin	0.46666666666667	0
bin	0.5	0
statistic scenarioPRJP1.node[1].wlan.radio 	packetErrorRate:histogram
field count 208170
field mean 0.22241936564198
field stddev 0.40540512359099
field sum 46301.039345691
field sqrsum 44511.512870575
field min 0
field max 1
attr source  packetErrorRate
attr title  "Packet error rate, histogram"
bin	-INF	0
bin	-0.5	0
bin	-0.43333333333333	0
bin	-0.36666666666667	0
bin	-0.3	0
bin	-0.23333333333333	0
bin	-0.16666666666667	0
bin	-0.1	0
bin	-0.033333333333333	154454
bin	0.033333333333333	3049
bin	0.1	1505
bin	0.16666666666667	995
bin	0.23333333333333	702
bin	0.3	668
bin	0.36666666666667	572
bin	0.43333333333333	524
bin	0.5	439
bin	0.56666666666667	459
bin	0.63333333333333	441
bin	0.7	491
bin	0.76666666666667	559
bin	0.83333333333333	648
bin	0.9	991
bin	0.96666666666667	41673
bin	1.0333333333333	0
bin	1.1	0
bin	1.1666666666667	0
bin	1.2333333333333	0
bin	1.3	0
bin	1.3666666666667	0
bin	1.4333333333333	0
bin	1.5	0
statistic scenarioPRJP1.node[1].wlan.radio 	minSNIR:histogram
field count 208170
field mean 8406.6984914156
field stddev 114433.10451738
field sum 1750022424.958
field sqrsum 2.7406715201371e+15
field min 0.00014291354472036
field max 3027890.533108
attr source  minSNIR
attr title  "Min SNIR, histogram"
bin	-INF	0
bin	-335183.07165039	0
bin	-290491.88693121	0
bin	-245800.70221204	0
bin	-201109.51749286	0
bin	-156418.33277368	0
bin	-111727.14805451	0
bin	-67035.963335332	0
bin	-22344.778616156	203505
bin	22346.406103021	2053
bin	67037.590822197	927
bin	111728.77554137	216
bin	156419.96026055	187
bin	201111.14497973	93
bin	245802.3296989	113
bin	290493.51441808	29
bin	335184.69913725	20
bin	379875.88385643	15
bin	424567.06857561	28
bin	469258.25329478	18
bin	513949.43801396	19
bin	558640.62273313	35
bin	603331.80745231	25
bin	648022.99217149	44
bin	692714.17689066	451
bin	737405.36160984	4
bin	782096.54632901	0
bin	826787.73104819	1
bin	871478.91576737	3
bin	916170.10048654	1
bin	960861.28520572	1
bin	1005552.4699249	382
scalar scenarioPRJP1.node[1].lo0.lo 	droppedPkBitError:count 	0
attr interpolationmode  none
attr source  dropPkBitError
attr title  "packets dropped/bit error, count"
scalar scenarioPRJP1.node[1].lo0.lo 	droppedPkBitError:sum(packetBytes) 	0
attr interpolationmode  none
attr source  dropPkBitError
attr title  "packets dropped/bit error, sum(packetBytes)"
scalar scenarioPRJP1.node[1].lo0.lo 	rcvdPkFromHL:count 	1
attr interpolationmode  none
attr source  packetReceivedFromUpper
attr title  "packets received from higher layer, count"
scalar scenarioPRJP1.node[1].lo0.lo 	rcvdPkFromHL:sum(packetBytes) 	56
attr interpolationmode  none
attr source  packetReceivedFromUpper
attr title  "packets received from higher layer, sum(packetBytes)"
scalar scenarioPRJP1.node[1].lo0.lo 	passedUpPk:count 	1
attr interpolationmode  none
attr source  packetSentToUpper
attr title  "packets passed to higher layer, count"
scalar scenarioPRJP1.node[1].lo0.lo 	passedUpPk:sum(packetBytes) 	56
attr interpolationmode  none
attr source  packetSentToUpper
attr title  "packets passed to higher layer, sum(packetBytes)"
scalar scenarioPRJP1.node[21].app 	"Total sent" 	5023
scalar scenarioPRJP1.node[21].app 	"Total received" 	1114
scalar scenarioPRJP1.node[21].app 	"Total deleted" 	183
scalar scenarioPRJP1.node[21].app 	dropPk:count 	183
attr interpolationmode  none
attr source  dropPk
attr title  "packets dropped, count"
scalar scenarioPRJP1.node[21].app 	dropPk:sum(packetBytes) 	93696
attr interpolationmode  none
attr source  dropPk
attr title  "packets dropped, sum(packetBytes)"
scalar scenarioPRJP1.node[21].app 	outOfOrderPk:count 	2
attr interpolationmode  none
attr source  outOfOrderPk
attr title  "packets received out of order, count"
scalar scenarioPRJP1.node[21].app 	outOfOrderPk:sum(packetBytes) 	1024
attr interpolationmode  none
attr source  outOfOrderPk
attr title  "packets received out of order, sum(packetBytes)"
scalar scenarioPRJP1.node[21].app 	rcvdPk:count 	1114
attr interpolationmode  none
attr source  rcvdPk
attr title  "packets received, count"
scalar scenarioPRJP1.node[21].app 	rcvdPk:sum(packetBytes) 	570368
attr interpolationmode  none
attr source  rcvdPk
attr title  "packets received, sum(packetBytes)"
statistic scenarioPRJP1.node[21].app 	endToEndDelay:histogram
field count 1114
field mean 4.2990603244609
field stddev 5.6732184865948
field sum 4789.1532014494
field sqrsum 56411.217616378
field min 0.000883807753
field max 19.860238149386
attr interpolationmode  none
attr source  messageAge(rcvdPk)
attr title  "delay, histogram"
attr unit  s
bin	-INF	0
bin	-9.304649061564	0
bin	-8.0639079798429	0
bin	-6.8231668981219	0
bin	-5.5824258164008	0
bin	-4.3416847346797	0
bin	-3.1009436529587	0
bin	-1.8602025712376	0
bin	-0.61946148951654	535
bin	0.62127959220453	72
bin	1.8620206739256	61
bin	3.1027617556467	52
bin	4.3435028373677	42
bin	5.5842439190888	46
bin	6.8249850008099	43
bin	8.0657260825309	33
bin	9.306467164252	37
bin	10.547208245973	29
bin	11.787949327694	33
bin	13.028690409415	29
bin	14.269431491136	21
bin	15.510172572857	25
bin	16.750913654578	27
bin	17.991654736299	17
bin	19.232395818021	12
bin	20.473136899742	0
bin	21.713877981463	0
bin	22.954619063184	0
bin	24.195360144905	0
bin	25.436101226626	0
bin	26.676842308347	0
bin	27.917583390068	0
scalar scenarioPRJP1.node[21].app 	sentPk:count 	5023
attr interpolationmode  none
attr source  sentPk
attr title  "packets sent, count"
scalar scenarioPRJP1.node[21].app 	sentPk:sum(packetBytes) 	2571776
attr interpolationmode  none
attr source  sentPk
attr title  "packets sent, sum(packetBytes)"
scalar scenarioPRJP1.node[21].udp 	droppedPkBadChecksum:count 	0
attr interpolationmode  none
attr title  "packets dropped (checksum error), count"
scalar scenarioPRJP1.node[21].udp 	droppedPkWrongPort:count 	11
attr interpolationmode  none
attr title  "packets dropped (wrong port), count"
scalar scenarioPRJP1.node[21].udp 	passedUpPk:count 	1299
attr interpolationmode  none
attr title  "packets passed up, count"
scalar scenarioPRJP1.node[21].udp 	rcvdPk:count 	1310
attr interpolationmode  none
attr source  rcvdPk
attr title  "packets received, count"
scalar scenarioPRJP1.node[21].udp 	rcvdPk:sum(packetBytes) 	681200
attr interpolationmode  none
attr source  rcvdPk
attr title  "packets received, sum(packetBytes)"
scalar scenarioPRJP1.node[21].udp 	sentPk:count 	5023
attr interpolationmode  none
attr source  sentPk
attr title  "packets sent, count"
scalar scenarioPRJP1.node[21].udp 	sentPk:sum(packetBytes) 	2611960
attr interpolationmode  none
attr source  sentPk
attr title  "packets sent, sum(packetBytes)"
scalar scenarioPRJP1.node[21].networkLayer.arp 	failedARPResolution:count 	7
attr title  "ARP failed resolutions, count"
scalar scenarioPRJP1.node[21].networkLayer.arp 	completedARPResolution:count 	526
attr title  "ARP completed resolutions, count"
scalar scenarioPRJP1.node[21].networkLayer.arp 	initiatedARPResolution:count 	94
attr title  "ARP initiated resolutions, count"
scalar scenarioPRJP1.node[21].networkLayer.arp 	sentReply:count 	65
attr title  "ARP replies sent, count"
scalar scenarioPRJP1.node[21].networkLayer.arp 	sentReq:count 	151
attr title  "ARP request sent, count"
scalar scenarioPRJP1.node[21].mobility 	startTime 	2.5
scalar scenarioPRJP1.node[21].mobility 	totalTime 	1897.5
scalar scenarioPRJP1.node[21].mobility 	stopTime 	1900
scalar scenarioPRJP1.node[21].mobility 	minSpeed 	2.4756151373957e-13
scalar scenarioPRJP1.node[21].mobility 	maxSpeed 	15.737471477805
scalar scenarioPRJP1.node[21].mobility 	totalDistance 	18680.935643494
scalar scenarioPRJP1.node[21].mobility 	totalCO2Emission 	4595.4060177687
scalar scenarioPRJP1.node[21].wlan.mgmt 	dataQueueLen:max 	49
attr interpolationmode  sample-hold
attr title  "data queue length, max"
scalar scenarioPRJP1.node[21].wlan.mgmt 	dataQueueLen:timeavg 	0.00014092044817813
attr interpolationmode  sample-hold
attr title  "data queue length, timeavg"
scalar scenarioPRJP1.node[21].wlan.mgmt 	dropPkByQueue:count 	0
attr interpolationmode  none
attr source  dropPkByQueue
attr title  "packets dropped by queue, count"
scalar scenarioPRJP1.node[21].wlan.mgmt 	dropPkByQueue:sum(packetBytes) 	0
attr interpolationmode  none
attr source  dropPkByQueue
attr title  "packets dropped by queue, sum(packetBytes)"
scalar scenarioPRJP1.node[21].wlan.mac 	"number of received packets" 	5759
scalar scenarioPRJP1.node[21].wlan.mac 	"number of collisions" 	43007
scalar scenarioPRJP1.node[21].wlan.mac 	"number of internal collisions" 	1
scalar scenarioPRJP1.node[21].wlan.mac 	"number of retry for AC 0" 	11532
scalar scenarioPRJP1.node[21].wlan.mac 	"number of retry for AC 1" 	0
scalar scenarioPRJP1.node[21].wlan.mac 	"number of retry for AC 2" 	0
scalar scenarioPRJP1.node[21].wlan.mac 	"number of retry for AC 3" 	0
scalar scenarioPRJP1.node[21].wlan.mac 	"sent and received bits" 	52709536
scalar scenarioPRJP1.node[21].wlan.mac 	"sent packet within AC 0" 	5755
scalar scenarioPRJP1.node[21].wlan.mac 	"sent packet within AC 1" 	12
scalar scenarioPRJP1.node[21].wlan.mac 	"sent packet within AC 2" 	0
scalar scenarioPRJP1.node[21].wlan.mac 	"sent packet within AC 3" 	0
scalar scenarioPRJP1.node[21].wlan.mac 	"sent in TXOP " 	0
scalar scenarioPRJP1.node[21].wlan.mac 	"sentWithoutRetry AC 0" 	3828
scalar scenarioPRJP1.node[21].wlan.mac 	"sentWithoutRetry AC 1" 	12
scalar scenarioPRJP1.node[21].wlan.mac 	"sentWithoutRetry AC 2" 	0
scalar scenarioPRJP1.node[21].wlan.mac 	"sentWithoutRetry AC 3" 	0
scalar scenarioPRJP1.node[21].wlan.mac 	"numGivenUp AC 0" 	1004
scalar scenarioPRJP1.node[21].wlan.mac 	"numGivenUp AC 1" 	0
scalar scenarioPRJP1.node[21].wlan.mac 	"numGivenUp AC 2" 	0
scalar scenarioPRJP1.node[21].wlan.mac 	"numGivenUp AC 3" 	0
scalar scenarioPRJP1.node[21].wlan.mac 	"numDropped AC 0" 	9
scalar scenarioPRJP1.node[21].wlan.mac 	"numDropped AC 1" 	0
scalar scenarioPRJP1.node[21].wlan.mac 	"numDropped AC 2" 	0
scalar scenarioPRJP1.node[21].wlan.mac 	"numDropped AC 3" 	0
scalar scenarioPRJP1.node[21].wlan.mac 	rcvdPkFromLL:count 	174165
attr interpolationmode  none
attr source  packetReceivedFromLower
attr title  "packets received from lower layer, count"
scalar scenarioPRJP1.node[21].wlan.mac 	rcvdPkFromLL:sum(packetBytes) 	52799882
attr interpolationmode  none
attr source  packetReceivedFromLower
attr title  "packets received from lower layer, sum(packetBytes)"
scalar scenarioPRJP1.node[21].wlan.mac 	sentDownPk:count 	46993
attr interpolationmode  none
attr source  packetSentToLower
attr title  "packets sent to lower layer, count"
scalar scenarioPRJP1.node[21].wlan.mac 	sentDownPk:sum(packetBytes) 	13752354
attr interpolationmode  none
attr source  packetSentToLower
attr title  "packets sent to lower layer, sum(packetBytes)"
scalar scenarioPRJP1.node[21].wlan.mac 	rcvdPkFromHL:count 	29712
attr interpolationmode  none
attr source  packetReceivedFromUpper
attr title  "packets received from higher layer, count"
scalar scenarioPRJP1.node[21].wlan.mac 	rcvdPkFromHL:sum(packetBytes) 	7163317
attr interpolationmode  none
attr source  packetReceivedFromUpper
attr title  "packets received from higher layer, sum(packetBytes)"
scalar scenarioPRJP1.node[21].wlan.mac 	passedUpPk:count 	66462
attr interpolationmode  none
attr source  packetSentToUpper
attr title  "packets passed to higher layer, count"
scalar scenarioPRJP1.node[21].wlan.mac 	passedUpPk:sum(packetBytes) 	12125799
attr interpolationmode  none
attr source  packetSentToUpper
attr title  "packets passed to higher layer, sum(packetBytes)"
statistic scenarioPRJP1.node[21].wlan.radio 	radioChannel:histogram
field count 1
field mean 3
field stddev -nan
field sum 3
field sqrsum 9
field min 3
field max 3
attr interpolationmode  sample-hold
attr source  radioChannelChanged
attr title  "Radio channel, histogram"
bin	-INF	0
bin	2	0
bin	3	1
bin	4	0
scalar scenarioPRJP1.node[21].wlan.radio 	transmissionState:count 	187972
attr interpolationmode  sample-hold
attr source  transmissionStateChanged
attr title  "Radio transmission state, count"
scalar scenarioPRJP1.node[21].wlan.radio 	receptionState:count 	766356
attr interpolationmode  sample-hold
attr source  receptionStateChanged
attr title  "Radio reception state, count"
scalar scenarioPRJP1.node[21].wlan.radio 	radioMode:count 	93988
attr interpolationmode  sample-hold
attr source  radioModeChanged
attr title  "Radio mode, count"
statistic scenarioPRJP1.node[21].wlan.radio 	symbolErrorRate:histogram
field count 0
field mean -nan
field stddev -nan
field sum 0
field sqrsum 0
field min -nan
field max -nan
attr source  symbolErrorRate
attr title  "Symbol error rate, histogram"
bin	-INF	0
bin	-0.5	0
bin	-0.46666666666667	0
bin	-0.43333333333333	0
bin	-0.4	0
bin	-0.36666666666667	0
bin	-0.33333333333333	0
bin	-0.3	0
bin	-0.26666666666667	0
bin	-0.23333333333333	0
bin	-0.2	0
bin	-0.16666666666667	0
bin	-0.13333333333333	0
bin	-0.1	0
bin	-0.066666666666667	0
bin	-0.033333333333333	0
bin	0	0
bin	0.033333333333333	0
bin	0.066666666666667	0
bin	0.1	0
bin	0.13333333333333	0
bin	0.16666666666667	0
bin	0.2	0
bin	0.23333333333333	0
bin	0.26666666666667	0
bin	0.3	0
bin	0.33333333333333	0
bin	0.36666666666667	0
bin	0.4	0
bin	0.43333333333333	0
bin	0.46666666666667	0
bin	0.5	0
statistic scenarioPRJP1.node[21].wlan.radio 	bitErrorRate:histogram
field count 0
field mean -nan
field stddev -nan
field sum 0
field sqrsum 0
field min -nan
field max -nan
attr source  bitErrorRate
attr title  "Bit error rate, histogram"
bin	-INF	0
bin	-0.5	0
bin	-0.46666666666667	0
bin	-0.43333333333333	0
bin	-0.4	0
bin	-0.36666666666667	0
bin	-0.33333333333333	0
bin	-0.3	0
bin	-0.26666666666667	0
bin	-0.23333333333333	0
bin	-0.2	0
bin	-0.16666666666667	0
bin	-0.13333333333333	0
bin	-0.1	0
bin	-0.066666666666667	0
bin	-0.033333333333333	0
bin	0	0
bin	0.033333333333333	0
bin	0.066666666666667	0
bin	0.1	0
bin	0.13333333333333	0
bin	0.16666666666667	0
bin	0.2	0
bin	0.23333333333333	0
bin	0.26666666666667	0
bin	0.3	0
bin	0.33333333333333	0
bin	0.36666666666667	0
bin	0.4	0
bin	0.43333333333333	0
bin	0.46666666666667	0
bin	0.5	0
statistic scenarioPRJP1.node[21].wlan.radio 	packetErrorRate:histogram
field count 174165
field mean 0.21957124775319
field stddev 0.40246496347227
field sum 38241.626364934
field sqrsum 36607.506163895
field min 0
field max 1
attr source  packetErrorRate
attr title  "Packet error rate, histogram"
bin	-INF	0
bin	-0.5	0
bin	-0.43333333333333	0
bin	-0.36666666666667	0
bin	-0.3	0
bin	-0.23333333333333	0
bin	-0.16666666666667	0
bin	-0.1	0
bin	-0.033333333333333	129204
bin	0.033333333333333	2721
bin	0.1	1313
bin	0.16666666666667	941
bin	0.23333333333333	672
bin	0.3	626
bin	0.36666666666667	503
bin	0.43333333333333	515
bin	0.5	431
bin	0.56666666666667	391
bin	0.63333333333333	444
bin	0.7	404
bin	0.76666666666667	459
bin	0.83333333333333	602
bin	0.9	843
bin	0.96666666666667	34096
bin	1.0333333333333	0
bin	1.1	0
bin	1.1666666666667	0
bin	1.2333333333333	0
bin	1.3	0
bin	1.3666666666667	0
bin	1.4333333333333	0
bin	1.5	0
statistic scenarioPRJP1.node[21].wlan.radio 	minSNIR:histogram
field count 174165
field mean 5490.6944491285
field stddev 107105.77784399
field sum 956286798.73246
field sqrsum 2.0031987195083e+15
field min 0.0001063518243275
field max 20570102.167376
attr source  minSNIR
attr title  "Min SNIR, histogram"
bin	-INF	0
bin	-214622.53792157	0
bin	-186006.1745464	0
bin	-157389.81117123	0
bin	-128773.44779606	0
bin	-100157.08442089	0
bin	-71540.721045726	0
bin	-42924.357670557	0
bin	-14307.994295388	171094
bin	14308.369079781	1524
bin	42924.732454949	314
bin	71541.095830118	247
bin	100157.45920529	92
bin	128773.82258046	141
bin	157390.18595562	83
bin	186006.54933079	53
bin	214622.91270596	18
bin	243239.27608113	29
bin	271855.6394563	35
bin	300472.00283147	16
bin	329088.36620664	12
bin	357704.72958181	8
bin	386321.09295697	6
bin	414937.45633214	16
bin	443553.81970731	1
bin	472170.18308248	9
bin	500786.54645765	7
bin	529402.90983282	10
bin	558019.27320799	17
bin	586635.63658316	18
bin	615251.99995832	18
bin	643868.36333349	397
scalar scenarioPRJP1.node[21].lo0.lo 	droppedPkBitError:count 	0
attr interpolationmode  none
attr source  dropPkBitError
attr title  "packets dropped/bit error, count"
scalar scenarioPRJP1.node[21].lo0.lo 	droppedPkBitError:sum(packetBytes) 	0
attr interpolationmode  none
attr source  dropPkBitError
attr title  "packets dropped/bit error, sum(packetBytes)"
scalar scenarioPRJP1.node[21].lo0.lo 	rcvdPkFromHL:count 	0
attr interpolationmode  none
attr source  packetReceivedFromUpper
attr title  "packets received from higher layer, count"
scalar scenarioPRJP1.node[21].lo0.lo 	rcvdPkFromHL:sum(packetBytes) 	0
attr interpolationmode  none
attr source  packetReceivedFromUpper
attr title  "packets received from higher layer, sum(packetBytes)"
scalar scenarioPRJP1.node[21].lo0.lo 	passedUpPk:count 	0
attr interpolationmode  none
attr source  packetSentToUpper
attr title  "packets passed to higher layer, count"
scalar scenarioPRJP1.node[21].lo0.lo 	passedUpPk:sum(packetBytes) 	0
attr interpolationmode  none
attr source  packetSentToUpper
attr title  "packets passed to higher layer, sum(packetBytes)"
scalar scenarioPRJP1.node[2].app 	"Total sent" 	5013
scalar scenarioPRJP1.node[2].app 	"Total received" 	1183
scalar scenarioPRJP1.node[2].app 	"Total deleted" 	213
scalar scenarioPRJP1.node[2].app 	dropPk:count 	213
attr interpolationmode  none
attr source  dropPk
attr title  "packets dropped, count"
scalar scenarioPRJP1.node[2].app 	dropPk:sum(packetBytes) 	109056
attr interpolationmode  none
attr source  dropPk
attr title  "packets dropped, sum(packetBytes)"
scalar scenarioPRJP1.node[2].app 	outOfOrderPk:count 	1
attr interpolationmode  none
attr source  outOfOrderPk
attr title  "packets received out of order, count"
scalar scenarioPRJP1.node[2].app 	outOfOrderPk:sum(packetBytes) 	512
attr interpolationmode  none
attr source  outOfOrderPk
attr title  "packets received out of order, sum(packetBytes)"
scalar scenarioPRJP1.node[2].app 	rcvdPk:count 	1183
attr interpolationmode  none
attr source  rcvdPk
attr title  "packets received, count"
scalar scenarioPRJP1.node[2].app 	rcvdPk:sum(packetBytes) 	605696
attr interpolationmode  none
attr source  rcvdPk
attr title  "packets received, sum(packetBytes)"
statistic scenarioPRJP1.node[2].app 	endToEndDelay:histogram
field count 1183
field mean 4.4146931094221
field stddev 5.7031967523821
field sum 5222.5819484464
field sqrsum 61502.364219322
field min 0.000886055707
field max 19.947146066688
attr interpolationmode  none
attr source  messageAge(rcvdPk)
attr title  "delay, histogram"
attr unit  s
bin	-INF	0
bin	-8.8191619953255	0
bin	-7.6431537207129	0
bin	-6.4671454461003	0
bin	-5.2911371714877	0
bin	-4.1151288968751	0
bin	-2.9391206222625	0
bin	-1.7631123476499	0
bin	-0.5871040730373	546
bin	0.5889042015753	82
bin	1.7649124761879	65
bin	2.9409207508005	45
bin	4.1169290254131	52
bin	5.2929373000257	56
bin	6.4689455746383	37
bin	7.6449538492509	43
bin	8.8209621238635	19
bin	9.9969703984761	28
bin	11.172978673089	36
bin	12.348986947701	32
bin	13.524995222314	36
bin	14.701003496926	38
bin	15.877011771539	26
bin	17.053020046152	21
bin	18.229028320764	14
bin	19.405036595377	7
bin	20.581044869989	0
bin	21.757053144602	0
bin	22.933061419215	0
bin	24.109069693827	0
bin	25.28507796844	0
bin	26.461086243052	0
scalar scenarioPRJP1.node[2].app 	sentPk:count 	5013
attr interpolationmode  none
attr source  sentPk
attr title  "packets sent, count"
scalar scenarioPRJP1.node[2].app 	sentPk:sum(packetBytes) 	2566656
attr interpolationmode  none
attr source  sentPk
attr title  "packets sent, sum(packetBytes)"
scalar scenarioPRJP1.node[2].udp 	droppedPkBadChecksum:count 	0
attr interpolationmode  none
attr title  "packets dropped (checksum error), count"
scalar scenarioPRJP1.node[2].udp 	droppedPkWrongPort:count 	7
attr interpolationmode  none
attr title  "packets dropped (wrong port), count"
scalar scenarioPRJP1.node[2].udp 	passedUpPk:count 	1397
attr interpolationmode  none
attr title  "packets passed up, count"
scalar scenarioPRJP1.node[2].udp 	rcvdPk:count 	1404
attr interpolationmode  none
attr source  rcvdPk
attr title  "packets received, count"
scalar scenarioPRJP1.node[2].udp 	rcvdPk:sum(packetBytes) 	730080
attr interpolationmode  none
attr source  rcvdPk
attr title  "packets received, sum(packetBytes)"
scalar scenarioPRJP1.node[2].udp 	sentPk:count 	5013
attr interpolationmode  none
attr source  sentPk
attr title  "packets sent, count"
scalar scenarioPRJP1.node[2].udp 	sentPk:sum(packetBytes) 	2606760
attr interpolationmode  none
attr source  sentPk
attr title  "packets sent, sum(packetBytes)"
scalar scenarioPRJP1.node[2].networkLayer.arp 	failedARPResolution:count 	7
attr title  "ARP failed resolutions, count"
scalar scenarioPRJP1.node[2].networkLayer.arp 	completedARPResolution:count 	591
attr title  "ARP completed resolutions, count"
scalar scenarioPRJP1.node[2].networkLayer.arp 	initiatedARPResolution:count 	93
attr title  "ARP initiated resolutions, count"
scalar scenarioPRJP1.node[2].networkLayer.arp 	sentReply:count 	68
attr title  "ARP replies sent, count"
scalar scenarioPRJP1.node[2].networkLayer.arp 	sentReq:count 	149
attr title  "ARP request sent, count"
scalar scenarioPRJP1.node[2].mobility 	startTime 	0.1
scalar scenarioPRJP1.node[2].mobility 	totalTime 	1899.9
scalar scenarioPRJP1.node[2].mobility 	stopTime 	1900
scalar scenarioPRJP1.node[2].mobility 	minSpeed 	2.4757640323523e-13
scalar scenarioPRJP1.node[2].mobility 	maxSpeed 	17.237501921095
scalar scenarioPRJP1.node[2].mobility 	totalDistance 	19738.979413309
scalar scenarioPRJP1.node[2].mobility 	totalCO2Emission 	5042.0617004367
scalar scenarioPRJP1.node[2].wlan.mgmt 	dataQueueLen:max 	89
attr interpolationmode  sample-hold
attr title  "data queue length, max"
scalar scenarioPRJP1.node[2].wlan.mgmt 	dataQueueLen:timeavg 	0.0019009808607643
attr interpolationmode  sample-hold
attr title  "data queue length, timeavg"
scalar scenarioPRJP1.node[2].wlan.mgmt 	dropPkByQueue:count 	0
attr interpolationmode  none
attr source  dropPkByQueue
attr title  "packets dropped by queue, count"
scalar scenarioPRJP1.node[2].wlan.mgmt 	dropPkByQueue:sum(packetBytes) 	0
attr interpolationmode  none
attr source  dropPkByQueue
attr title  "packets dropped by queue, sum(packetBytes)"
scalar scenarioPRJP1.node[2].wlan.mac 	"number of received packets" 	5003
scalar scenarioPRJP1.node[2].wlan.mac 	"number of collisions" 	40861
scalar scenarioPRJP1.node[2].wlan.mac 	"number of internal collisions" 	0
scalar scenarioPRJP1.node[2].wlan.mac 	"number of retry for AC 0" 	9264
scalar scenarioPRJP1.node[2].wlan.mac 	"number of retry for AC 1" 	49
scalar scenarioPRJP1.node[2].wlan.mac 	"number of retry for AC 2" 	0
scalar scenarioPRJP1.node[2].wlan.mac 	"number of retry for AC 3" 	0
scalar scenarioPRJP1.node[2].wlan.mac 	"sent and received bits" 	49931032
scalar scenarioPRJP1.node[2].wlan.mac 	"sent packet within AC 0" 	4947
scalar scenarioPRJP1.node[2].wlan.mac 	"sent packet within AC 1" 	35
scalar scenarioPRJP1.node[2].wlan.mac 	"sent packet within AC 2" 	0
scalar scenarioPRJP1.node[2].wlan.mac 	"sent packet within AC 3" 	0
scalar scenarioPRJP1.node[2].wlan.mac 	"sent in TXOP " 	0
scalar scenarioPRJP1.node[2].wlan.mac 	"sentWithoutRetry AC 0" 	3406
scalar scenarioPRJP1.node[2].wlan.mac 	"sentWithoutRetry AC 1" 	29
scalar scenarioPRJP1.node[2].wlan.mac 	"sentWithoutRetry AC 2" 	0
scalar scenarioPRJP1.node[2].wlan.mac 	"sentWithoutRetry AC 3" 	0
scalar scenarioPRJP1.node[2].wlan.mac 	"numGivenUp AC 0" 	811
scalar scenarioPRJP1.node[2].wlan.mac 	"numGivenUp AC 1" 	5
scalar scenarioPRJP1.node[2].wlan.mac 	"numGivenUp AC 2" 	0
scalar scenarioPRJP1.node[2].wlan.mac 	"numGivenUp AC 3" 	0
scalar scenarioPRJP1.node[2].wlan.mac 	"numDropped AC 0" 	22
scalar scenarioPRJP1.node[2].wlan.mac 	"numDropped AC 1" 	0
scalar scenarioPRJP1.node[2].wlan.mac 	"numDropped AC 2" 	0
scalar scenarioPRJP1.node[2].wlan.mac 	"numDropped AC 3" 	0
scalar scenarioPRJP1.node[2].wlan.mac 	rcvdPkFromLL:count 	186358
attr interpolationmode  none
attr source  packetReceivedFromLower
attr title  "packets received from lower layer, count"
scalar scenarioPRJP1.node[2].wlan.mac 	rcvdPkFromLL:sum(packetBytes) 	53456216
attr interpolationmode  none
attr source  packetReceivedFromLower
attr title  "packets received from lower layer, sum(packetBytes)"
scalar scenarioPRJP1.node[2].wlan.mac 	sentDownPk:count 	44296
attr interpolationmode  none
attr source  packetSentToLower
attr title  "packets sent to lower layer, count"
scalar scenarioPRJP1.node[2].wlan.mac 	sentDownPk:sum(packetBytes) 	12012579
attr interpolationmode  none
attr source  packetSentToLower
attr title  "packets sent to lower layer, sum(packetBytes)"
scalar scenarioPRJP1.node[2].wlan.mac 	rcvdPkFromHL:count 	30002
attr interpolationmode  none
attr source  packetReceivedFromUpper
attr title  "packets received from higher layer, count"
scalar scenarioPRJP1.node[2].wlan.mac 	rcvdPkFromHL:sum(packetBytes) 	6715559
attr interpolationmode  none
attr source  packetReceivedFromUpper
attr title  "packets received from higher layer, sum(packetBytes)"
scalar scenarioPRJP1.node[2].wlan.mac 	passedUpPk:count 	78523
attr interpolationmode  none
attr source  packetSentToUpper
attr title  "packets passed to higher layer, count"
scalar scenarioPRJP1.node[2].wlan.mac 	passedUpPk:sum(packetBytes) 	13108931
attr interpolationmode  none
attr source  packetSentToUpper
attr title  "packets passed to higher layer, sum(packetBytes)"
statistic scenarioPRJP1.node[2].wlan.radio 	radioChannel:histogram
field count 1
field mean 3
field stddev -nan
field sum 3
field sqrsum 9
field min 3
field max 3
attr interpolationmode  sample-hold
attr source  radioChannelChanged
attr title  "Radio channel, histogram"
bin	-INF	0
bin	2	0
bin	3	1
bin	4	0
scalar scenarioPRJP1.node[2].wlan.radio 	transmissionState:count 	177184
attr interpolationmode  sample-hold
attr source  transmissionStateChanged
attr title  "Radio transmission state, count"
scalar scenarioPRJP1.node[2].wlan.radio 	receptionState:count 	789281
attr interpolationmode  sample-hold
attr source  receptionStateChanged
attr title  "Radio reception state, count"
scalar scenarioPRJP1.node[2].wlan.radio 	radioMode:count 	88594
attr interpolationmode  sample-hold
attr source  radioModeChanged
attr title  "Radio mode, count"
statistic scenarioPRJP1.node[2].wlan.radio 	symbolErrorRate:histogram
field count 0
field mean -nan
field stddev -nan
field sum 0
field sqrsum 0
field min -nan
field max -nan
attr source  symbolErrorRate
attr title  "Symbol error rate, histogram"
bin	-INF	0
bin	-0.5	0
bin	-0.46666666666667	0
bin	-0.43333333333333	0
bin	-0.4	0
bin	-0.36666666666667	0
bin	-0.33333333333333	0
bin	-0.3	0
bin	-0.26666666666667	0
bin	-0.23333333333333	0
bin	-0.2	0
bin	-0.16666666666667	0
bin	-0.13333333333333	0
bin	-0.1	0
bin	-0.066666666666667	0
bin	-0.033333333333333	0
bin	0	0
bin	0.033333333333333	0
bin	0.066666666666667	0
bin	0.1	0
bin	0.13333333333333	0
bin	0.16666666666667	0
bin	0.2	0
bin	0.23333333333333	0
bin	0.26666666666667	0
bin	0.3	0
bin	0.33333333333333	0
bin	0.36666666666667	0
bin	0.4	0
bin	0.43333333333333	0
bin	0.46666666666667	0
bin	0.5	0
statistic scenarioPRJP1.node[2].wlan.radio 	bitErrorRate:histogram
field count 0
field mean -nan
field stddev -nan
field sum 0
field sqrsum 0
field min -nan
field max -nan
attr source  bitErrorRate
attr title  "Bit error rate, histogram"
bin	-INF	0
bin	-0.5	0
bin	-0.46666666666667	0
bin	-0.43333333333333	0
bin	-0.4	0
bin	-0.36666666666667	0
bin	-0.33333333333333	0
bin	-0.3	0
bin	-0.26666666666667	0
bin	-0.23333333333333	0
bin	-0.2	0
bin	-0.16666666666667	0
bin	-0.13333333333333	0
bin	-0.1	0
bin	-0.066666666666667	0
bin	-0.033333333333333	0
bin	0	0
bin	0.033333333333333	0
bin	0.066666666666667	0
bin	0.1	0
bin	0.13333333333333	0
bin	0.16666666666667	0
bin	0.2	0
bin	0.23333333333333	0
bin	0.26666666666667	0
bin	0.3	0
bin	0.33333333333333	0
bin	0.36666666666667	0
bin	0.4	0
bin	0.43333333333333	0
bin	0.46666666666667	0
bin	0.5	0
statistic scenarioPRJP1.node[2].wlan.radio 	packetErrorRate:histogram
field count 186358
field mean 0.19421275950119
field stddev 0.38480269126506
field sum 36193.101435123
field sqrsum 34623.622889422
field min 0
field max 1
attr source  packetErrorRate
attr title  "Packet error rate, histogram"
bin	-INF	0
bin	-2.5375214152135e-08	0
bin	-2.1991852265183e-08	0
bin	-1.8608490378232e-08	0
bin	-1.5225128491281e-08	0
bin	-1.1841766604329e-08	0
bin	-8.4584047173782e-09	0
bin	-5.0750428304269e-09	0
bin	-1.6916809434756e-09	114313
bin	1.6916809434756e-09	1373
bin	5.0750428304269e-09	670
bin	8.4584047173782e-09	421
bin	1.1841766604329e-08	327
bin	1.5225128491281e-08	288
bin	1.8608490378232e-08	198
bin	2.1991852265183e-08	202
bin	2.5375214152135e-08	194
bin	2.8758576039086e-08	138
bin	3.2141937926037e-08	123
bin	3.5525299812988e-08	112
bin	3.890866169994e-08	120
bin	4.2292023586891e-08	100
bin	4.5675385473842e-08	99
bin	4.9058747360794e-08	71
bin	5.2442109247745e-08	100
bin	5.5825471134696e-08	66
bin	5.9208833021647e-08	108
bin	6.2592194908599e-08	75
bin	6.597555679555e-08	71
bin	6.9358918682501e-08	70
bin	7.2742280569453e-08	82
bin	7.6125642456404e-08	67037
statistic scenarioPRJP1.node[2].wlan.radio 	minSNIR:histogram
field count 186358
field mean 13793.081366912
field stddev 171413.49579974
field sum 2570451057.375
field sqrsum 5.5111051208452e+15
field min 0.0001164068006619
field max 8211703.3557617
attr source  minSNIR
attr title  "Min SNIR, histogram"
bin	-INF	0
bin	-64744.792300366	0
bin	-56111.28382711	0
bin	-47477.775353854	0
bin	-38844.266880598	0
bin	-30210.758407341	0
bin	-21577.249934085	0
bin	-12943.741460829	0
bin	-4310.2329875724	171612
bin	4323.2754856838	6765
bin	12956.78395894	2513
bin	21590.292432196	850
bin	30223.800905453	679
bin	38857.309378709	319
bin	47490.817851965	317
bin	56124.326325221	326
bin	64757.834798478	197
bin	73391.343271734	439
bin	82024.85174499	213
bin	90658.360218246	207
bin	99291.868691503	81
bin	107925.37716476	94
bin	116558.88563802	50
bin	125192.39411127	55
bin	133825.90258453	36
bin	142459.41105778	31
bin	151092.91953104	32
bin	159726.4280043	25
bin	168359.93647755	22
bin	176993.44495081	24
bin	185626.95342407	50
bin	194260.46189732	1421
scalar scenarioPRJP1.node[2].lo0.lo 	droppedPkBitError:count 	0
attr interpolationmode  none
attr source  dropPkBitError
attr title  "packets dropped/bit error, count"
scalar scenarioPRJP1.node[2].lo0.lo 	droppedPkBitError:sum(packetBytes) 	0
attr interpolationmode  none
attr source  dropPkBitError
attr title  "packets dropped/bit error, sum(packetBytes)"
scalar scenarioPRJP1.node[2].lo0.lo 	rcvdPkFromHL:count 	0
attr interpolationmode  none
attr source  packetReceivedFromUpper
attr title  "packets received from higher layer, count"
scalar scenarioPRJP1.node[2].lo0.lo 	rcvdPkFromHL:sum(packetBytes) 	0
attr interpolationmode  none
attr source  packetReceivedFromUpper
attr title  "packets received from higher layer, sum(packetBytes)"
scalar scenarioPRJP1.node[2].lo0.lo 	passedUpPk:count 	0
attr interpolationmode  none
attr source  packetSentToUpper
attr title  "packets passed to higher layer, count"
scalar scenarioPRJP1.node[2].lo0.lo 	passedUpPk:sum(packetBytes) 	0
attr interpolationmode  none
attr source  packetSentToUpper
attr title  "packets passed to higher layer, sum(packetBytes)"
scalar scenarioPRJP1.node[22].app 	"Total sent" 	5033
scalar scenarioPRJP1.node[22].app 	"Total received" 	1254
scalar scenarioPRJP1.node[22].app 	"Total deleted" 	237
scalar scenarioPRJP1.node[22].app 	dropPk:count 	237
attr interpolationmode  none
attr source  dropPk
attr title  "packets dropped, count"
scalar scenarioPRJP1.node[22].app 	dropPk:sum(packetBytes) 	121344
attr interpolationmode  none
attr source  dropPk
attr title  "packets dropped, sum(packetBytes)"
scalar scenarioPRJP1.node[22].app 	outOfOrderPk:count 	0
attr interpolationmode  none
attr source  outOfOrderPk
attr title  "packets received out of order, count"
scalar scenarioPRJP1.node[22].app 	outOfOrderPk:sum(packetBytes) 	0
attr interpolationmode  none
attr source  outOfOrderPk
attr title  "packets received out of order, sum(packetBytes)"
scalar scenarioPRJP1.node[22].app 	rcvdPk:count 	1254
attr interpolationmode  none
attr source  rcvdPk
attr title  "packets received, count"
scalar scenarioPRJP1.node[22].app 	rcvdPk:sum(packetBytes) 	642048
attr interpolationmode  none
attr source  rcvdPk
attr title  "packets received, sum(packetBytes)"
statistic scenarioPRJP1.node[22].app 	endToEndDelay:histogram
field count 1254
field mean 4.15500679826
field stddev 5.7570926109672
field sum 5210.3785250181
field sqrsum 63178.734703018
field min 0.000891011007
field max 19.98992562604
attr interpolationmode  none
attr source  messageAge(rcvdPk)
attr title  "delay, histogram"
attr unit  s
bin	-INF	0
bin	-9.90937178624	0
bin	-8.5880022031773	0
bin	-7.2666326201147	0
bin	-5.945263037052	0
bin	-4.6238934539893	0
bin	-3.3025238709267	0
bin	-1.981154287864	0
bin	-0.65978470480134	637
bin	0.66158487826133	90
bin	1.982954461324	63
bin	3.3043240443867	50
bin	4.6256936274493	58
bin	5.947063210512	36
bin	7.2684327935747	45
bin	8.5898023766373	41
bin	9.9111719597	42
bin	11.232541542763	35
bin	12.553911125825	32
bin	13.875280708888	22
bin	15.196650291951	28
bin	16.518019875013	22
bin	17.839389458076	35
bin	19.160759041139	18
bin	20.482128624201	0
bin	21.803498207264	0
bin	23.124867790327	0
bin	24.446237373389	0
bin	25.767606956452	0
bin	27.088976539515	0
bin	28.410346122577	0
bin	29.73171570564	0
scalar scenarioPRJP1.node[22].app 	sentPk:count 	5033
attr interpolationmode  none
attr source  sentPk
attr title  "packets sent, count"
scalar scenarioPRJP1.node[22].app 	sentPk:sum(packetBytes) 	2576896
attr interpolationmode  none
attr source  sentPk
attr title  "packets sent, sum(packetBytes)"
scalar scenarioPRJP1.node[22].udp 	droppedPkBadChecksum:count 	0
attr interpolationmode  none
attr title  "packets dropped (checksum error), count"
scalar scenarioPRJP1.node[22].udp 	droppedPkWrongPort:count 	9
attr interpolationmode  none
attr title  "packets dropped (wrong port), count"
scalar scenarioPRJP1.node[22].udp 	passedUpPk:count 	1491
attr interpolationmode  none
attr title  "packets passed up, count"
scalar scenarioPRJP1.node[22].udp 	rcvdPk:count 	1500
attr interpolationmode  none
attr source  rcvdPk
attr title  "packets received, count"
scalar scenarioPRJP1.node[22].udp 	rcvdPk:sum(packetBytes) 	780000
attr interpolationmode  none
attr source  rcvdPk
attr title  "packets received, sum(packetBytes)"
scalar scenarioPRJP1.node[22].udp 	sentPk:count 	5033
attr interpolationmode  none
attr source  sentPk
attr title  "packets sent, count"
scalar scenarioPRJP1.node[22].udp 	sentPk:sum(packetBytes) 	2617160
attr interpolationmode  none
attr source  sentPk
attr title  "packets sent, sum(packetBytes)"
scalar scenarioPRJP1.node[22].networkLayer.arp 	failedARPResolution:count 	15
attr title  "ARP failed resolutions, count"
scalar scenarioPRJP1.node[22].networkLayer.arp 	completedARPResolution:count 	641
attr title  "ARP completed resolutions, count"
scalar scenarioPRJP1.node[22].networkLayer.arp 	initiatedARPResolution:count 	113
attr title  "ARP initiated resolutions, count"
scalar scenarioPRJP1.node[22].networkLayer.arp 	sentReply:count 	88
attr title  "ARP replies sent, count"
scalar scenarioPRJP1.node[22].networkLayer.arp 	sentReq:count 	185
attr title  "ARP request sent, count"
scalar scenarioPRJP1.node[22].mobility 	startTime 	2.5
scalar scenarioPRJP1.node[22].mobility 	totalTime 	1897.5
scalar scenarioPRJP1.node[22].mobility 	stopTime 	1900
scalar scenarioPRJP1.node[22].mobility 	minSpeed 	2.4756659402072e-13
scalar scenarioPRJP1.node[22].mobility 	maxSpeed 	17.335488438231
scalar scenarioPRJP1.node[22].mobility 	totalDistance 	21978.826850457
scalar scenarioPRJP1.node[22].mobility 	totalCO2Emission 	5288.5085703581
scalar scenarioPRJP1.node[22].wlan.mgmt 	dataQueueLen:max 	64
attr interpolationmode  sample-hold
attr title  "data queue length, max"
scalar scenarioPRJP1.node[22].wlan.mgmt 	dataQueueLen:timeavg 	0.00028853336664348
attr interpolationmode  sample-hold
attr title  "data queue length, timeavg"
scalar scenarioPRJP1.node[22].wlan.mgmt 	dropPkByQueue:count 	0
attr interpolationmode  none
attr source  dropPkByQueue
attr title  "packets dropped by queue, count"
scalar scenarioPRJP1.node[22].wlan.mgmt 	dropPkByQueue:sum(packetBytes) 	0
attr interpolationmode  none
attr source  dropPkByQueue
attr title  "packets dropped by queue, sum(packetBytes)"
scalar scenarioPRJP1.node[22].wlan.mac 	"number of received packets" 	7295
scalar scenarioPRJP1.node[22].wlan.mac 	"number of collisions" 	58073
scalar scenarioPRJP1.node[22].wlan.mac 	"number of internal collisions" 	1
scalar scenarioPRJP1.node[22].wlan.mac 	"number of retry for AC 0" 	13594
scalar scenarioPRJP1.node[22].wlan.mac 	"number of retry for AC 1" 	38
scalar scenarioPRJP1.node[22].wlan.mac 	"number of retry for AC 2" 	0
scalar scenarioPRJP1.node[22].wlan.mac 	"number of retry for AC 3" 	0
scalar scenarioPRJP1.node[22].wlan.mac 	"sent and received bits" 	58446600
scalar scenarioPRJP1.node[22].wlan.mac 	"sent packet within AC 0" 	6824
scalar scenarioPRJP1.node[22].wlan.mac 	"sent packet within AC 1" 	54
scalar scenarioPRJP1.node[22].wlan.mac 	"sent packet within AC 2" 	0
scalar scenarioPRJP1.node[22].wlan.mac 	"sent packet within AC 3" 	0
scalar scenarioPRJP1.node[22].wlan.mac 	"sent in TXOP " 	0
scalar scenarioPRJP1.node[22].wlan.mac 	"sentWithoutRetry AC 0" 	4574
scalar scenarioPRJP1.node[22].wlan.mac 	"sentWithoutRetry AC 1" 	43
scalar scenarioPRJP1.node[22].wlan.mac 	"sentWithoutRetry AC 2" 	0
scalar scenarioPRJP1.node[22].wlan.mac 	"sentWithoutRetry AC 3" 	0
scalar scenarioPRJP1.node[22].wlan.mac 	"numGivenUp AC 0" 	1190
scalar scenarioPRJP1.node[22].wlan.mac 	"numGivenUp AC 1" 	1
scalar scenarioPRJP1.node[22].wlan.mac 	"numGivenUp AC 2" 	0
scalar scenarioPRJP1.node[22].wlan.mac 	"numGivenUp AC 3" 	0
scalar scenarioPRJP1.node[22].wlan.mac 	"numDropped AC 0" 	24
scalar scenarioPRJP1.node[22].wlan.mac 	"numDropped AC 1" 	0
scalar scenarioPRJP1.node[22].wlan.mac 	"numDropped AC 2" 	0
scalar scenarioPRJP1.node[22].wlan.mac 	"numDropped AC 3" 	0
scalar scenarioPRJP1.node[22].wlan.mac 	rcvdPkFromLL:count 	232969
attr interpolationmode  none
attr source  packetReceivedFromLower
attr title  "packets received from lower layer, count"
scalar scenarioPRJP1.node[22].wlan.mac 	rcvdPkFromLL:sum(packetBytes) 	69285663
attr interpolationmode  none
attr source  packetReceivedFromLower
attr title  "packets received from lower layer, sum(packetBytes)"
scalar scenarioPRJP1.node[22].wlan.mac 	sentDownPk:count 	53410
attr interpolationmode  none
attr source  packetSentToLower
attr title  "packets sent to lower layer, count"
scalar scenarioPRJP1.node[22].wlan.mac 	sentDownPk:sum(packetBytes) 	15788583
attr interpolationmode  none
attr source  packetSentToLower
attr title  "packets sent to lower layer, sum(packetBytes)"
scalar scenarioPRJP1.node[22].wlan.mac 	rcvdPkFromHL:count 	32508
attr interpolationmode  none
attr source  packetReceivedFromUpper
[...]
scalar scenarioPRJP1.node[19].wlan.mac 	passedUpPk:sum(packetBytes) 	15132476
attr interpolationmode  none
attr source  packetSentToUpper
attr title  "packets passed to higher layer, sum(packetBytes)"
statistic scenarioPRJP1.node[19].wlan.radio 	radioChannel:histogram
field count 1
field mean 3
field stddev -nan
field sum 3
field sqrsum 9
field min 3
field max 3
attr interpolationmode  sample-hold
attr source  radioChannelChanged
attr title  "Radio channel, histogram"
bin	-INF	0
bin	2	0
bin	3	1
bin	4	0
scalar scenarioPRJP1.node[19].wlan.radio 	transmissionState:count 	198976
attr interpolationmode  sample-hold
attr source  transmissionStateChanged
attr title  "Radio transmission state, count"
scalar scenarioPRJP1.node[19].wlan.radio 	receptionState:count 	932352
attr interpolationmode  sample-hold
attr source  receptionStateChanged
attr title  "Radio reception state, count"
scalar scenarioPRJP1.node[19].wlan.radio 	radioMode:count 	99490
attr interpolationmode  sample-hold
attr source  radioModeChanged
attr title  "Radio mode, count"
statistic scenarioPRJP1.node[19].wlan.radio 	symbolErrorRate:histogram
field count 0
field mean -nan
field stddev -nan
field sum 0
field sqrsum 0
field min -nan
field max -nan
attr source  symbolErrorRate
attr title  "Symbol error rate, histogram"
bin	-INF	0
bin	-0.5	0
bin	-0.46666666666667	0
bin	-0.43333333333333	0
bin	-0.4	0
bin	-0.36666666666667	0
bin	-0.33333333333333	0
bin	-0.3	0
bin	-0.26666666666667	0
bin	-0.23333333333333	0
bin	-0.2	0
bin	-0.16666666666667	0
bin	-0.13333333333333	0
bin	-0.1	0
bin	-0.066666666666667	0
bin	-0.033333333333333	0
bin	0	0
bin	0.033333333333333	0
bin	0.066666666666667	0
bin	0.1	0
bin	0.13333333333333	0
bin	0.16666666666667	0
bin	0.2	0
bin	0.23333333333333	0
bin	0.26666666666667	0
bin	0.3	0
bin	0.33333333333333	0
bin	0.36666666666667	0
bin	0.4	0
bin	0.43333333333333	0
bin	0.46666666666667	0
bin	0.5	0
statistic scenarioPRJP1.node[19].wlan.radio 	bitErrorRate:histogram
field count 0
field mean -nan
field stddev -nan
field sum 0
field sqrsum 0
field min -nan
field max -nan
attr source  bitErrorRate
attr title  "Bit error rate, histogram"
bin	-INF	0
bin	-0.5	0
bin	-0.46666666666667	0
bin	-0.43333333333333	0
bin	-0.4	0
bin	-0.36666666666667	0
bin	-0.33333333333333	0
bin	-0.3	0
bin	-0.26666666666667	0
bin	-0.23333333333333	0
bin	-0.2	0
bin	-0.16666666666667	0
bin	-0.13333333333333	0
bin	-0.1	0
bin	-0.066666666666667	0
bin	-0.033333333333333	0
bin	0	0
bin	0.033333333333333	0
bin	0.066666666666667	0
bin	0.1	0
bin	0.13333333333333	0
bin	0.16666666666667	0
bin	0.2	0
bin	0.23333333333333	0
bin	0.26666666666667	0
bin	0.3	0
bin	0.33333333333333	0
bin	0.36666666666667	0
bin	0.4	0
bin	0.43333333333333	0
bin	0.46666666666667	0
bin	0.5	0
statistic scenarioPRJP1.node[19].wlan.radio 	packetErrorRate:histogram
field count 232189
field mean 0.23350176468326
field stddev 0.41201180581186
field sum 54216.541240041
field sqrsum 52074.436681237
field min 0
field max 1
attr source  packetErrorRate
attr title  "Packet error rate, histogram"
bin	-INF	0
bin	-0.5	0
bin	-0.43333333333333	0
bin	-0.36666666666667	0
bin	-0.3	0
bin	-0.23333333333333	0
bin	-0.16666666666667	0
bin	-0.1	0
bin	-0.033333333333333	169307
bin	0.033333333333333	3506
bin	0.1	1669
bin	0.16666666666667	1164
bin	0.23333333333333	947
bin	0.3	740
bin	0.36666666666667	648
bin	0.43333333333333	649
bin	0.5	569
bin	0.56666666666667	519
bin	0.63333333333333	598
bin	0.7	611
bin	0.76666666666667	672
bin	0.83333333333333	771
bin	0.9	1161
bin	0.96666666666667	48658
bin	1.0333333333333	0
bin	1.1	0
bin	1.1666666666667	0
bin	1.2333333333333	0
bin	1.3	0
bin	1.3666666666667	0
bin	1.4333333333333	0
bin	1.5	0
statistic scenarioPRJP1.node[19].wlan.radio 	minSNIR:histogram
field count 232189
field mean 8132.8510447787
field stddev 119199.924006
field sum 1888358551.2361
field sqrsum 3.3144292365945e+15
field min 0.00013231114953501
field max 3012958.8769377
attr source  minSNIR
attr title  "Min SNIR, histogram"
bin	-INF	0
bin	-54616.634435187	0
bin	-47334.394542075	0
bin	-40052.154648962	0
bin	-32769.914755849	0
bin	-25487.674862736	0
bin	-18205.434969624	0
bin	-10923.195076511	0
bin	-3640.9551833982	218666
bin	3641.2847097146	5453
bin	10923.524602827	2116
bin	18205.76449594	871
bin	25488.004389053	586
bin	32770.244282166	468
bin	40052.484175278	266
bin	47334.724068391	511
bin	54616.963961504	388
bin	61899.203854617	335
bin	69181.443747729	159
bin	76463.683640842	134
bin	83745.923533955	304
bin	91028.163427068	232
bin	98310.40332018	89
bin	105592.64321329	34
bin	112874.88310641	48
bin	120157.12299952	21
bin	127439.36289263	23
bin	134721.60278574	28
bin	142003.84267886	17
bin	149286.08257197	20
bin	156568.32246508	46
bin	163850.5623582	1374
scalar scenarioPRJP1.node[19].lo0.lo 	droppedPkBitError:count 	0
attr interpolationmode  none
attr source  dropPkBitError
attr title  "packets dropped/bit error, count"
scalar scenarioPRJP1.node[19].lo0.lo 	droppedPkBitError:sum(packetBytes) 	0
attr interpolationmode  none
attr source  dropPkBitError
attr title  "packets dropped/bit error, sum(packetBytes)"
scalar scenarioPRJP1.node[19].lo0.lo 	rcvdPkFromHL:count 	0
attr interpolationmode  none
attr source  packetReceivedFromUpper
attr title  "packets received from higher layer, count"
scalar scenarioPRJP1.node[19].lo0.lo 	rcvdPkFromHL:sum(packetBytes) 	0
attr interpolationmode  none
attr source  packetReceivedFromUpper
attr title  "packets received from higher layer, sum(packetBytes)"
scalar scenarioPRJP1.node[19].lo0.lo 	passedUpPk:count 	0
attr interpolationmode  none
attr source  packetSentToUpper
attr title  "packets passed to higher layer, count"
scalar scenarioPRJP1.node[19].lo0.lo 	passedUpPk:sum(packetBytes) 	0
attr interpolationmode  none
attr source  packetSentToUpper
attr title  "packets passed to higher layer, sum(packetBytes)"
scalar scenarioPRJP1.node[37].app 	"Total sent" 	5001
scalar scenarioPRJP1.node[37].app 	"Total received" 	1189
scalar scenarioPRJP1.node[37].app 	"Total deleted" 	221
scalar scenarioPRJP1.node[37].app 	dropPk:count 	221
attr interpolationmode  none
attr source  dropPk
attr title  "packets dropped, count"
scalar scenarioPRJP1.node[37].app 	dropPk:sum(packetBytes) 	113152
attr interpolationmode  none
attr source  dropPk
attr title  "packets dropped, sum(packetBytes)"
scalar scenarioPRJP1.node[37].app 	outOfOrderPk:count 	3
attr interpolationmode  none
attr source  outOfOrderPk
attr title  "packets received out of order, count"
scalar scenarioPRJP1.node[37].app 	outOfOrderPk:sum(packetBytes) 	1536
attr interpolationmode  none
attr source  outOfOrderPk
attr title  "packets received out of order, sum(packetBytes)"
scalar scenarioPRJP1.node[37].app 	rcvdPk:count 	1189
attr interpolationmode  none
attr source  rcvdPk
attr title  "packets received, count"
scalar scenarioPRJP1.node[37].app 	rcvdPk:sum(packetBytes) 	608768
attr interpolationmode  none
attr source  rcvdPk
attr title  "packets received, sum(packetBytes)"
statistic scenarioPRJP1.node[37].app 	endToEndDelay:histogram
field count 1189
field mean 4.5566714802421
field stddev 5.936480997801
field sum 5417.8823900079
field sqrsum 66554.77645491
field min 0.000891011007
field max 19.931041851768
attr interpolationmode  none
attr source  messageAge(rcvdPk)
attr title  "delay, histogram"
attr unit  s
bin	-INF	0
bin	-9.866927541174	0
bin	-8.5512183278599	0
bin	-7.2355091145457	0
bin	-5.9197999012316	0
bin	-4.6040906879175	0
bin	-3.2883814746033	0
bin	-1.9726722612892	0
bin	-0.65696304797507	582
bin	0.65874616533907	75
bin	1.9744553786532	51
bin	3.2901645919673	54
bin	4.6058738052815	39
bin	5.9215830185956	48
bin	7.2372922319097	53
bin	8.5530014452239	34
bin	9.868710658538	37
bin	11.184419871852	35
bin	12.500129085166	30
bin	13.81583829848	42
bin	15.131547511795	33
bin	16.447256725109	35
bin	17.762965938423	28
bin	19.078675151737	13
bin	20.394384365051	0
bin	21.710093578365	0
bin	23.025802791679	0
bin	24.341512004993	0
bin	25.657221218308	0
bin	26.972930431622	0
bin	28.288639644936	0
bin	29.60434885825	0
scalar scenarioPRJP1.node[37].app 	sentPk:count 	5001
attr interpolationmode  none
attr source  sentPk
attr title  "packets sent, count"
scalar scenarioPRJP1.node[37].app 	sentPk:sum(packetBytes) 	2560512
attr interpolationmode  none
attr source  sentPk
attr title  "packets sent, sum(packetBytes)"
scalar scenarioPRJP1.node[37].udp 	droppedPkBadChecksum:count 	0
attr interpolationmode  none
attr title  "packets dropped (checksum error), count"
scalar scenarioPRJP1.node[37].udp 	droppedPkWrongPort:count 	0
attr interpolationmode  none
attr title  "packets dropped (wrong port), count"
scalar scenarioPRJP1.node[37].udp 	passedUpPk:count 	1413
attr interpolationmode  none
attr title  "packets passed up, count"
scalar scenarioPRJP1.node[37].udp 	rcvdPk:count 	1413
attr interpolationmode  none
attr source  rcvdPk
attr title  "packets received, count"
scalar scenarioPRJP1.node[37].udp 	rcvdPk:sum(packetBytes) 	734760
attr interpolationmode  none
attr source  rcvdPk
attr title  "packets received, sum(packetBytes)"
scalar scenarioPRJP1.node[37].udp 	sentPk:count 	5001
attr interpolationmode  none
attr source  sentPk
attr title  "packets sent, count"
scalar scenarioPRJP1.node[37].udp 	sentPk:sum(packetBytes) 	2600520
attr interpolationmode  none
attr source  sentPk
attr title  "packets sent, sum(packetBytes)"
scalar scenarioPRJP1.node[37].networkLayer.arp 	failedARPResolution:count 	6
attr title  "ARP failed resolutions, count"
scalar scenarioPRJP1.node[37].networkLayer.arp 	completedARPResolution:count 	674
attr title  "ARP completed resolutions, count"
scalar scenarioPRJP1.node[37].networkLayer.arp 	initiatedARPResolution:count 	104
attr title  "ARP initiated resolutions, count"
scalar scenarioPRJP1.node[37].networkLayer.arp 	sentReply:count 	81
attr title  "ARP replies sent, count"
scalar scenarioPRJP1.node[37].networkLayer.arp 	sentReq:count 	166
attr title  "ARP request sent, count"
scalar scenarioPRJP1.node[37].mobility 	startTime 	2.5
scalar scenarioPRJP1.node[37].mobility 	totalTime 	1897.5
scalar scenarioPRJP1.node[37].mobility 	stopTime 	1900
scalar scenarioPRJP1.node[37].mobility 	minSpeed 	2.4754669932754e-13
scalar scenarioPRJP1.node[37].mobility 	maxSpeed 	17.829062889815
scalar scenarioPRJP1.node[37].mobility 	totalDistance 	17613.222907265
scalar scenarioPRJP1.node[37].mobility 	totalCO2Emission 	4885.7595458799
scalar scenarioPRJP1.node[37].wlan.mgmt 	dataQueueLen:max 	54
attr interpolationmode  sample-hold
attr title  "data queue length, max"
scalar scenarioPRJP1.node[37].wlan.mgmt 	dataQueueLen:timeavg 	5.629119485639e-06
attr interpolationmode  sample-hold
attr title  "data queue length, timeavg"
scalar scenarioPRJP1.node[37].wlan.mgmt 	dropPkByQueue:count 	0
attr interpolationmode  none
attr source  dropPkByQueue
attr title  "packets dropped by queue, count"
scalar scenarioPRJP1.node[37].wlan.mgmt 	dropPkByQueue:sum(packetBytes) 	0
attr interpolationmode  none
attr source  dropPkByQueue
attr title  "packets dropped by queue, sum(packetBytes)"
scalar scenarioPRJP1.node[37].wlan.mac 	"number of received packets" 	6470
scalar scenarioPRJP1.node[37].wlan.mac 	"number of collisions" 	51237
scalar scenarioPRJP1.node[37].wlan.mac 	"number of internal collisions" 	0
scalar scenarioPRJP1.node[37].wlan.mac 	"number of retry for AC 0" 	13110
scalar scenarioPRJP1.node[37].wlan.mac 	"number of retry for AC 1" 	23
scalar scenarioPRJP1.node[37].wlan.mac 	"number of retry for AC 2" 	0
scalar scenarioPRJP1.node[37].wlan.mac 	"number of retry for AC 3" 	0
scalar scenarioPRJP1.node[37].wlan.mac 	"sent and received bits" 	55330472
scalar scenarioPRJP1.node[37].wlan.mac 	"sent packet within AC 0" 	6256
scalar scenarioPRJP1.node[37].wlan.mac 	"sent packet within AC 1" 	21
scalar scenarioPRJP1.node[37].wlan.mac 	"sent packet within AC 2" 	0
scalar scenarioPRJP1.node[37].wlan.mac 	"sent packet within AC 3" 	0
scalar scenarioPRJP1.node[37].wlan.mac 	"sent in TXOP " 	0
scalar scenarioPRJP1.node[37].wlan.mac 	"sentWithoutRetry AC 0" 	4319
scalar scenarioPRJP1.node[37].wlan.mac 	"sentWithoutRetry AC 1" 	16
scalar scenarioPRJP1.node[37].wlan.mac 	"sentWithoutRetry AC 2" 	0
scalar scenarioPRJP1.node[37].wlan.mac 	"sentWithoutRetry AC 3" 	0
scalar scenarioPRJP1.node[37].wlan.mac 	"numGivenUp AC 0" 	1235
scalar scenarioPRJP1.node[37].wlan.mac 	"numGivenUp AC 1" 	2
scalar scenarioPRJP1.node[37].wlan.mac 	"numGivenUp AC 2" 	0
scalar scenarioPRJP1.node[37].wlan.mac 	"numGivenUp AC 3" 	0
scalar scenarioPRJP1.node[37].wlan.mac 	"numDropped AC 0" 	4
scalar scenarioPRJP1.node[37].wlan.mac 	"numDropped AC 1" 	0
scalar scenarioPRJP1.node[37].wlan.mac 	"numDropped AC 2" 	0
scalar scenarioPRJP1.node[37].wlan.mac 	"numDropped AC 3" 	0
scalar scenarioPRJP1.node[37].wlan.mac 	rcvdPkFromLL:count 	209575
attr interpolationmode  none
attr source  packetReceivedFromLower
attr title  "packets received from lower layer, count"
scalar scenarioPRJP1.node[37].wlan.mac 	rcvdPkFromLL:sum(packetBytes) 	63800075
attr interpolationmode  none
attr source  packetReceivedFromLower
attr title  "packets received from lower layer, sum(packetBytes)"
scalar scenarioPRJP1.node[37].wlan.mac 	sentDownPk:count 	50338
attr interpolationmode  none
attr source  packetSentToLower
attr title  "packets sent to lower layer, count"
scalar scenarioPRJP1.node[37].wlan.mac 	sentDownPk:sum(packetBytes) 	15111670
attr interpolationmode  none
attr source  packetSentToLower
attr title  "packets sent to lower layer, sum(packetBytes)"
scalar scenarioPRJP1.node[37].wlan.mac 	rcvdPkFromHL:count 	30739
attr interpolationmode  none
attr source  packetReceivedFromUpper
attr title  "packets received from higher layer, count"
scalar scenarioPRJP1.node[37].wlan.mac 	rcvdPkFromHL:sum(packetBytes) 	7620244
attr interpolationmode  none
attr source  packetReceivedFromUpper
attr title  "packets received from higher layer, sum(packetBytes)"
scalar scenarioPRJP1.node[37].wlan.mac 	passedUpPk:count 	76254
attr interpolationmode  none
attr source  packetSentToUpper
attr title  "packets passed to higher layer, count"
scalar scenarioPRJP1.node[37].wlan.mac 	passedUpPk:sum(packetBytes) 	13907328
attr interpolationmode  none
attr source  packetSentToUpper
attr title  "packets passed to higher layer, sum(packetBytes)"
statistic scenarioPRJP1.node[37].wlan.radio 	radioChannel:histogram
field count 1
field mean 3
field stddev -nan
field sum 3
field sqrsum 9
field min 3
field max 3
attr interpolationmode  sample-hold
attr source  radioChannelChanged
attr title  "Radio channel, histogram"
bin	-INF	0
bin	2	0
bin	3	1
bin	4	0
scalar scenarioPRJP1.node[37].wlan.radio 	transmissionState:count 	201352
attr interpolationmode  sample-hold
attr source  transmissionStateChanged
attr title  "Radio transmission state, count"
scalar scenarioPRJP1.node[37].wlan.radio 	receptionState:count 	900864
attr interpolationmode  sample-hold
attr source  receptionStateChanged
attr title  "Radio reception state, count"
scalar scenarioPRJP1.node[37].wlan.radio 	radioMode:count 	100678
attr interpolationmode  sample-hold
attr source  radioModeChanged
attr title  "Radio mode, count"
statistic scenarioPRJP1.node[37].wlan.radio 	symbolErrorRate:histogram
field count 0
field mean -nan
field stddev -nan
field sum 0
field sqrsum 0
field min -nan
field max -nan
attr source  symbolErrorRate
attr title  "Symbol error rate, histogram"
bin	-INF	0
bin	-0.5	0
bin	-0.46666666666667	0
bin	-0.43333333333333	0
bin	-0.4	0
bin	-0.36666666666667	0
bin	-0.33333333333333	0
bin	-0.3	0
bin	-0.26666666666667	0
bin	-0.23333333333333	0
bin	-0.2	0
bin	-0.16666666666667	0
bin	-0.13333333333333	0
bin	-0.1	0
bin	-0.066666666666667	0
bin	-0.033333333333333	0
bin	0	0
bin	0.033333333333333	0
bin	0.066666666666667	0
bin	0.1	0
bin	0.13333333333333	0
bin	0.16666666666667	0
bin	0.2	0
bin	0.23333333333333	0
bin	0.26666666666667	0
bin	0.3	0
bin	0.33333333333333	0
bin	0.36666666666667	0
bin	0.4	0
bin	0.43333333333333	0
bin	0.46666666666667	0
bin	0.5	0
statistic scenarioPRJP1.node[37].wlan.radio 	bitErrorRate:histogram
field count 0
field mean -nan
field stddev -nan
field sum 0
field sqrsum 0
field min -nan
field max -nan
attr source  bitErrorRate
attr title  "Bit error rate, histogram"
bin	-INF	0
bin	-0.5	0
bin	-0.46666666666667	0
bin	-0.43333333333333	0
bin	-0.4	0
bin	-0.36666666666667	0
bin	-0.33333333333333	0
bin	-0.3	0
bin	-0.26666666666667	0
bin	-0.23333333333333	0
bin	-0.2	0
bin	-0.16666666666667	0
bin	-0.13333333333333	0
bin	-0.1	0
bin	-0.066666666666667	0
bin	-0.033333333333333	0
bin	0	0
bin	0.033333333333333	0
bin	0.066666666666667	0
bin	0.1	0
bin	0.13333333333333	0
bin	0.16666666666667	0
bin	0.2	0
bin	0.23333333333333	0
bin	0.26666666666667	0
bin	0.3	0
bin	0.33333333333333	0
bin	0.36666666666667	0
bin	0.4	0
bin	0.43333333333333	0
bin	0.46666666666667	0
bin	0.5	0
statistic scenarioPRJP1.node[37].wlan.radio 	packetErrorRate:histogram
field count 209575
field mean 0.2197150254155
field stddev 0.4034005440147
field sum 46046.776451452
field sqrsum 44221.564598182
field min 0
field max 1
attr source  packetErrorRate
attr title  "Packet error rate, histogram"
bin	-INF	0
bin	-0.49999824412164	0
bin	-0.43333181157208	0
bin	-0.36666537902253	0
bin	-0.29999894647298	0
bin	-0.23333251392343	0
bin	-0.16666608137388	0
bin	-0.099999648824327	0
bin	-0.033333216274776	155968
bin	0.033333216274776	3096
bin	0.099999648824327	1475
bin	0.16666608137388	1077
bin	0.23333251392343	785
bin	0.29999894647298	660
bin	0.36666537902253	576
bin	0.43333181157208	510
bin	0.49999824412164	466
bin	0.56666467667119	450
bin	0.63333110922074	463
bin	0.69999754177029	531
bin	0.76666397431984	471
bin	0.83333040686939	628
bin	0.89999683941894	1092
bin	0.9666632719685	41327
bin	1.033329704518	0
bin	1.0999961370676	0
bin	1.1666625696172	0
bin	1.2333290021667	0
bin	1.2999954347163	0
bin	1.3666618672658	0
bin	1.4333282998154	0
bin	1.4999947323649	0
statistic scenarioPRJP1.node[37].wlan.radio 	minSNIR:histogram
field count 209575
field mean 13845.421592882
field stddev 171645.4743711
field sum 2901654230.3283
field sqrsum 6.2146792053331e+15
field min 0.00010906057810136
field max 6574083.8362812
attr source  minSNIR
attr title  "Min SNIR, histogram"
bin	-INF	0
bin	-73972.380453663	0
bin	-64109.189743218	0
bin	-54245.999032774	0
bin	-44382.80832233	0
bin	-34519.617611885	0
bin	-24656.426901441	0
bin	-14793.236190997	0
bin	-4930.0454805527	195003
bin	4933.1452298916	7099
bin	14796.335940336	1941
bin	24659.52665078	792
bin	34522.717361224	517
bin	44385.908071669	512
bin	54249.098782113	472
bin	64112.289492557	246
bin	73975.480203001	320
bin	83838.670913446	425
bin	93701.86162389	125
bin	103565.05233433	44
bin	113428.24304478	89
bin	123291.43375522	132
bin	133154.62446567	91
bin	143017.81517611	30
bin	152881.00588656	43
bin	162744.196597	23
bin	172607.38730744	54
bin	182470.57801789	9
bin	192333.76872833	15
bin	202196.95943878	15
bin	212060.15014922	11
bin	221923.34085967	1567
scalar scenarioPRJP1.node[37].lo0.lo 	droppedPkBitError:count 	0
attr interpolationmode  none
attr source  dropPkBitError
attr title  "packets dropped/bit error, count"
scalar scenarioPRJP1.node[37].lo0.lo 	droppedPkBitError:sum(packetBytes) 	0
attr interpolationmode  none
attr source  dropPkBitError
attr title  "packets dropped/bit error, sum(packetBytes)"
scalar scenarioPRJP1.node[37].lo0.lo 	rcvdPkFromHL:count 	0
attr interpolationmode  none
attr source  packetReceivedFromUpper
attr title  "packets received from higher layer, count"
scalar scenarioPRJP1.node[37].lo0.lo 	rcvdPkFromHL:sum(packetBytes) 	0
attr interpolationmode  none
attr source  packetReceivedFromUpper
attr title  "packets received from higher layer, sum(packetBytes)"
scalar scenarioPRJP1.node[37].lo0.lo 	passedUpPk:count 	0
attr interpolationmode  none
attr source  packetSentToUpper
attr title  "packets passed to higher layer, count"
scalar scenarioPRJP1.node[37].lo0.lo 	passedUpPk:sum(packetBytes) 	0
attr interpolationmode  none
attr source  packetSentToUpper
attr title  "packets passed to higher layer, sum(packetBytes)"
