version 2
run DYMOUM-FS-50-7-20150612-05:51:07-26155
attr configname DYMOUM-FS-50
attr datetime 20150612-05:51:07
attr experiment DYMOUM-FS-50
attr inifile omnetpp.ini
attr iterationvars ""
attr iterationvars2 $repetition=7
attr measurement ""
attr network Prj_Part1_propag.scenarioPRJP1
attr processid 26155
attr repetition 7
attr replication #7
attr resultdir results
attr runnumber 7
attr seedset 7

scalar scenarioPRJP1.radioMedium.propagation 	"Arrival computation count" 	122958209
scalar scenarioPRJP1.radioMedium 	"transmission count" 	2509389
scalar scenarioPRJP1.radioMedium 	"radio frame send count" 	122958209
scalar scenarioPRJP1.radioMedium 	"reception computation count" 	121990691
scalar scenarioPRJP1.radioMedium 	"interference computation count" 	321262101
scalar scenarioPRJP1.radioMedium 	"reception decision computation count" 	10417979
scalar scenarioPRJP1.radioMedium 	"listening decision computation count" 	192641115
scalar scenarioPRJP1.radioMedium 	"reception cache hit" 	86.90922446119
attr unit  %
scalar scenarioPRJP1.radioMedium 	"interference cache hit" 	50
attr unit  %
scalar scenarioPRJP1.radioMedium 	"noise cache hit" 	0
attr unit  %
scalar scenarioPRJP1.radioMedium 	"snir cache hit" 	0
attr unit  %
scalar scenarioPRJP1.radioMedium 	"reception decision cache hit" 	0
attr unit  %
scalar scenarioPRJP1.node[0].app 	"Total sent" 	5017
scalar scenarioPRJP1.node[0].app 	"Total received" 	1305
scalar scenarioPRJP1.node[0].app 	"Total deleted" 	212
scalar scenarioPRJP1.node[0].app 	dropPk:count 	212
attr interpolationmode  none
attr source  dropPk
attr title  "packets dropped, count"
scalar scenarioPRJP1.node[0].app 	dropPk:sum(packetBytes) 	108544
attr interpolationmode  none
attr source  dropPk
attr title  "packets dropped, sum(packetBytes)"
scalar scenarioPRJP1.node[0].app 	outOfOrderPk:count 	3
attr interpolationmode  none
attr source  outOfOrderPk
attr title  "packets received out of order, count"
scalar scenarioPRJP1.node[0].app 	outOfOrderPk:sum(packetBytes) 	1536
attr interpolationmode  none
attr source  outOfOrderPk
attr title  "packets received out of order, sum(packetBytes)"
scalar scenarioPRJP1.node[0].app 	rcvdPk:count 	1305
attr interpolationmode  none
attr source  rcvdPk
attr title  "packets received, count"
scalar scenarioPRJP1.node[0].app 	rcvdPk:sum(packetBytes) 	668160
attr interpolationmode  none
attr source  rcvdPk
attr title  "packets received, sum(packetBytes)"
statistic scenarioPRJP1.node[0].app 	endToEndDelay:histogram
field count 1305
field mean 4.7830281064731
field stddev 5.9205704727625
field sum 6241.8516789473
field sqrsum 75564.265775564
field min 0.000891060865
field max 19.850843717739
attr interpolationmode  none
attr source  messageAge(rcvdPk)
attr title  "delay, histogram"
attr unit  s
bin	-INF	0
bin	-8.896747210971	0
bin	-7.7103929480142	0
bin	-6.5240386850574	0
bin	-5.3376844221006	0
bin	-4.1513301591438	0
bin	-2.964975896187	0
bin	-1.7786216332302	0
bin	-0.5922673702734	576
bin	0.5940868926834	80
bin	1.7804411556402	76
bin	2.966795418597	49
bin	4.1531496815538	58
bin	5.3395039445106	48
bin	6.5258582074674	64
bin	7.7122124704242	39
bin	8.898566733381	40
bin	10.084920996338	32
bin	11.271275259295	47
bin	12.457629522251	34
bin	13.643983785208	27
bin	14.830338048165	37
bin	16.016692311122	33
bin	17.203046574079	33
bin	18.389400837035	19
bin	19.575755099992	13
bin	20.762109362949	0
bin	21.948463625906	0
bin	23.134817888863	0
bin	24.321172151819	0
bin	25.507526414776	0
bin	26.693880677733	0
scalar scenarioPRJP1.node[0].app 	sentPk:count 	5017
attr interpolationmode  none
attr source  sentPk
attr title  "packets sent, count"
scalar scenarioPRJP1.node[0].app 	sentPk:sum(packetBytes) 	2568704
attr interpolationmode  none
attr source  sentPk
attr title  "packets sent, sum(packetBytes)"
scalar scenarioPRJP1.node[0].udp 	droppedPkBadChecksum:count 	0
attr interpolationmode  none
attr title  "packets dropped (checksum error), count"
scalar scenarioPRJP1.node[0].udp 	droppedPkWrongPort:count 	1
attr interpolationmode  none
attr title  "packets dropped (wrong port), count"
scalar scenarioPRJP1.node[0].udp 	passedUpPk:count 	1520
attr interpolationmode  none
attr title  "packets passed up, count"
scalar scenarioPRJP1.node[0].udp 	rcvdPk:count 	1521
attr interpolationmode  none
attr source  rcvdPk
attr title  "packets received, count"
scalar scenarioPRJP1.node[0].udp 	rcvdPk:sum(packetBytes) 	790920
attr interpolationmode  none
attr source  rcvdPk
attr title  "packets received, sum(packetBytes)"
scalar scenarioPRJP1.node[0].udp 	sentPk:count 	5017
attr interpolationmode  none
attr source  sentPk
attr title  "packets sent, count"
scalar scenarioPRJP1.node[0].udp 	sentPk:sum(packetBytes) 	2608840
attr interpolationmode  none
attr source  sentPk
attr title  "packets sent, sum(packetBytes)"
scalar scenarioPRJP1.node[0].networkLayer.arp 	failedARPResolution:count 	6
attr title  "ARP failed resolutions, count"
scalar scenarioPRJP1.node[0].networkLayer.arp 	completedARPResolution:count 	654
attr title  "ARP completed resolutions, count"
scalar scenarioPRJP1.node[0].networkLayer.arp 	initiatedARPResolution:count 	108
attr title  "ARP initiated resolutions, count"
scalar scenarioPRJP1.node[0].networkLayer.arp 	sentReply:count 	69
attr title  "ARP replies sent, count"
scalar scenarioPRJP1.node[0].networkLayer.arp 	sentReq:count 	162
attr title  "ARP request sent, count"
scalar scenarioPRJP1.node[0].manetrouting 	"simulated time" 	1900
scalar scenarioPRJP1.node[0].manetrouting 	"Dymo totalSend " 	2461501
scalar scenarioPRJP1.node[0].manetrouting 	"Dymo Rreq send" 	1222562
scalar scenarioPRJP1.node[0].manetrouting 	"Dymo Rreq rec" 	944891
scalar scenarioPRJP1.node[0].manetrouting 	"Dymo Rrep send" 	8510
scalar scenarioPRJP1.node[0].manetrouting 	"Dymo Rrep rec" 	6841
scalar scenarioPRJP1.node[0].manetrouting 	"Dymo Rerr send" 	8662
scalar scenarioPRJP1.node[0].manetrouting 	"Dymo Rerr rec" 	26132
scalar scenarioPRJP1.node[0].mobility 	startTime 	0.1
scalar scenarioPRJP1.node[0].mobility 	totalTime 	1899.9
scalar scenarioPRJP1.node[0].mobility 	stopTime 	1900
scalar scenarioPRJP1.node[0].mobility 	minSpeed 	2.4755539959956e-13
scalar scenarioPRJP1.node[0].mobility 	maxSpeed 	18.162091870605
scalar scenarioPRJP1.node[0].mobility 	totalDistance 	19066.913794505
scalar scenarioPRJP1.node[0].mobility 	totalCO2Emission 	5297.4498796779
scalar scenarioPRJP1.node[0].wlan.mgmt 	dataQueueLen:max 	44
attr interpolationmode  sample-hold
attr title  "data queue length, max"
scalar scenarioPRJP1.node[0].wlan.mgmt 	dataQueueLen:timeavg 	1.4242019306279e-05
attr interpolationmode  sample-hold
attr title  "data queue length, timeavg"
scalar scenarioPRJP1.node[0].wlan.mgmt 	dropPkByQueue:count 	0
attr interpolationmode  none
attr source  dropPkByQueue
attr title  "packets dropped by queue, count"
scalar scenarioPRJP1.node[0].wlan.mgmt 	dropPkByQueue:sum(packetBytes) 	0
attr interpolationmode  none
attr source  dropPkByQueue
attr title  "packets dropped by queue, sum(packetBytes)"
scalar scenarioPRJP1.node[0].wlan.mac 	"number of received packets" 	7424
scalar scenarioPRJP1.node[0].wlan.mac 	"number of collisions" 	62817
scalar scenarioPRJP1.node[0].wlan.mac 	"number of internal collisions" 	0
scalar scenarioPRJP1.node[0].wlan.mac 	"number of retry for AC 0" 	14934
scalar scenarioPRJP1.node[0].wlan.mac 	"number of retry for AC 1" 	1
scalar scenarioPRJP1.node[0].wlan.mac 	"number of retry for AC 2" 	0
scalar scenarioPRJP1.node[0].wlan.mac 	"number of retry for AC 3" 	0
scalar scenarioPRJP1.node[0].wlan.mac 	"sent and received bits" 	59843720
scalar scenarioPRJP1.node[0].wlan.mac 	"sent packet within AC 0" 	6899
scalar scenarioPRJP1.node[0].wlan.mac 	"sent packet within AC 1" 	11
scalar scenarioPRJP1.node[0].wlan.mac 	"sent packet within AC 2" 	0
scalar scenarioPRJP1.node[0].wlan.mac 	"sent packet within AC 3" 	0
scalar scenarioPRJP1.node[0].wlan.mac 	"sent in TXOP " 	0
scalar scenarioPRJP1.node[0].wlan.mac 	"sentWithoutRetry AC 0" 	4623
scalar scenarioPRJP1.node[0].wlan.mac 	"sentWithoutRetry AC 1" 	10
scalar scenarioPRJP1.node[0].wlan.mac 	"sentWithoutRetry AC 2" 	0
scalar scenarioPRJP1.node[0].wlan.mac 	"sentWithoutRetry AC 3" 	0
scalar scenarioPRJP1.node[0].wlan.mac 	"numGivenUp AC 0" 	1404
scalar scenarioPRJP1.node[0].wlan.mac 	"numGivenUp AC 1" 	0
scalar scenarioPRJP1.node[0].wlan.mac 	"numGivenUp AC 2" 	0
scalar scenarioPRJP1.node[0].wlan.mac 	"numGivenUp AC 3" 	0
scalar scenarioPRJP1.node[0].wlan.mac 	"numDropped AC 0" 	10
scalar scenarioPRJP1.node[0].wlan.mac 	"numDropped AC 1" 	0
scalar scenarioPRJP1.node[0].wlan.mac 	"numDropped AC 2" 	0
scalar scenarioPRJP1.node[0].wlan.mac 	"numDropped AC 3" 	0
scalar scenarioPRJP1.node[0].wlan.mac 	rcvdPkFromLL:count 	217632
attr interpolationmode  none
attr source  packetReceivedFromLower
attr title  "packets received from lower layer, count"
scalar scenarioPRJP1.node[0].wlan.mac 	rcvdPkFromLL:sum(packetBytes) 	67046877
attr interpolationmode  none
attr source  packetReceivedFromLower
attr title  "packets received from lower layer, sum(packetBytes)"
scalar scenarioPRJP1.node[0].wlan.mac 	sentDownPk:count 	54740
attr interpolationmode  none
attr source  packetSentToLower
attr title  "packets sent to lower layer, count"
scalar scenarioPRJP1.node[0].wlan.mac 	sentDownPk:sum(packetBytes) 	16829538
attr interpolationmode  none
attr source  packetSentToLower
attr title  "packets sent to lower layer, sum(packetBytes)"
scalar scenarioPRJP1.node[0].wlan.mac 	rcvdPkFromHL:count 	32391
attr interpolationmode  none
attr source  packetReceivedFromUpper
attr title  "packets received from higher layer, count"
scalar scenarioPRJP1.node[0].wlan.mac 	rcvdPkFromHL:sum(packetBytes) 	8285637
attr interpolationmode  none
attr source  packetReceivedFromUpper
attr title  "packets received from higher layer, sum(packetBytes)"
scalar scenarioPRJP1.node[0].wlan.mac 	passedUpPk:count 	77715
attr interpolationmode  none
attr source  packetSentToUpper
attr title  "packets passed to higher layer, count"
scalar scenarioPRJP1.node[0].wlan.mac 	passedUpPk:sum(packetBytes) 	14588987
attr interpolationmode  none
attr source  packetSentToUpper
attr title  "packets passed to higher layer, sum(packetBytes)"
statistic scenarioPRJP1.node[0].wlan.radio 	radioChannel:histogram
field count 1
field mean 3
field stddev -nan
field sum 3
field sqrsum 9
field min 3
field max 3
attr interpolationmode  sample-hold
attr source  radioChannelChanged
attr title  "Radio channel, histogram"
bin	-INF	0
bin	2	0
bin	3	1
bin	4	0
scalar scenarioPRJP1.node[0].wlan.radio 	transmissionState:count 	218960
attr interpolationmode  sample-hold
attr source  transmissionStateChanged
attr title  "Radio transmission state, count"
scalar scenarioPRJP1.node[0].wlan.radio 	receptionState:count 	925219
attr interpolationmode  sample-hold
attr source  receptionStateChanged
attr title  "Radio reception state, count"
scalar scenarioPRJP1.node[0].wlan.radio 	radioMode:count 	109482
attr interpolationmode  sample-hold
attr source  radioModeChanged
attr title  "Radio mode, count"
statistic scenarioPRJP1.node[0].wlan.radio 	symbolErrorRate:histogram
field count 0
field mean -nan
field stddev -nan
field sum 0
field sqrsum 0
field min -nan
field max -nan
attr source  symbolErrorRate
attr title  "Symbol error rate, histogram"
bin	-INF	0
bin	-0.5	0
bin	-0.46666666666667	0
bin	-0.43333333333333	0
bin	-0.4	0
bin	-0.36666666666667	0
bin	-0.33333333333333	0
bin	-0.3	0
bin	-0.26666666666667	0
bin	-0.23333333333333	0
bin	-0.2	0
bin	-0.16666666666667	0
bin	-0.13333333333333	0
bin	-0.1	0
bin	-0.066666666666667	0
bin	-0.033333333333333	0
bin	0	0
bin	0.033333333333333	0
bin	0.066666666666667	0
bin	0.1	0
bin	0.13333333333333	0
bin	0.16666666666667	0
bin	0.2	0
bin	0.23333333333333	0
bin	0.26666666666667	0
bin	0.3	0
bin	0.33333333333333	0
bin	0.36666666666667	0
bin	0.4	0
bin	0.43333333333333	0
bin	0.46666666666667	0
bin	0.5	0
statistic scenarioPRJP1.node[0].wlan.radio 	bitErrorRate:histogram
field count 0
field mean -nan
field stddev -nan
field sum 0
field sqrsum 0
field min -nan
field max -nan
attr source  bitErrorRate
attr title  "Bit error rate, histogram"
bin	-INF	0
bin	-0.5	0
bin	-0.46666666666667	0
bin	-0.43333333333333	0
bin	-0.4	0
bin	-0.36666666666667	0
bin	-0.33333333333333	0
bin	-0.3	0
bin	-0.26666666666667	0
bin	-0.23333333333333	0
bin	-0.2	0
bin	-0.16666666666667	0
bin	-0.13333333333333	0
bin	-0.1	0
bin	-0.066666666666667	0
bin	-0.033333333333333	0
bin	0	0
bin	0.033333333333333	0
bin	0.066666666666667	0
bin	0.1	0
bin	0.13333333333333	0
bin	0.16666666666667	0
bin	0.2	0
bin	0.23333333333333	0
bin	0.26666666666667	0
bin	0.3	0
bin	0.33333333333333	0
bin	0.36666666666667	0
bin	0.4	0
bin	0.43333333333333	0
bin	0.46666666666667	0
bin	0.5	0
statistic scenarioPRJP1.node[0].wlan.radio 	packetErrorRate:histogram
field count 217632
field mean 0.25988205801485
field stddev 0.42727572154748
field sum 56558.652049889
field sqrsum 54430.282782004
field min 0
field max 1
attr source  packetErrorRate
attr title  "Packet error rate, histogram"
bin	-INF	0
bin	-0.5	0
bin	-0.43333333333333	0
bin	-0.36666666666667	0
bin	-0.3	0
bin	-0.23333333333333	0
bin	-0.16666666666667	0
bin	-0.1	0
bin	-0.033333333333333	152508
bin	0.033333333333333	3397
bin	0.1	1634
bin	0.16666666666667	1203
bin	0.23333333333333	930
bin	0.3	789
bin	0.36666666666667	698
bin	0.43333333333333	623
bin	0.5	531
bin	0.56666666666667	517
bin	0.63333333333333	593
bin	0.7	589
bin	0.76666666666667	611
bin	0.83333333333333	780
bin	0.9	1171
bin	0.96666666666667	51058
bin	1.0333333333333	0
bin	1.1	0
bin	1.1666666666667	0
bin	1.2333333333333	0
bin	1.3	0
bin	1.3666666666667	0
bin	1.4333333333333	0
bin	1.5	0
statistic scenarioPRJP1.node[0].wlan.radio 	minSNIR:histogram
field count 217632
field mean 6191.1266428628
field stddev 102356.71313574
field sum 1347387273.5395
field sqrsum 2.2884393561777e+15
field min 0.00012319442442071
field max 3012958.8769377
attr source  minSNIR
attr title  "Min SNIR, histogram"
bin	-INF	0
bin	-54214.714568154	0
bin	-46986.068042251	0
bin	-39757.421516347	0
bin	-32528.774990444	0
bin	-25300.12846454	0
bin	-18071.481938637	0
bin	-10842.835412733	0
bin	-3614.1888868299	207263
bin	3614.4576390735	4880
bin	10843.104164977	1515
bin	18071.75069088	640
bin	25300.397216784	427
bin	32529.043742687	227
bin	39757.690268591	193
bin	46986.336794494	225
bin	54214.983320398	121
bin	61443.629846301	131
bin	68672.276372205	196
bin	75900.922898108	144
bin	83129.569424011	211
bin	90358.215949915	56
bin	97586.862475818	55
bin	104815.50900172	74
bin	112044.15552763	50
bin	119272.80205353	38
bin	126501.44857943	42
bin	133730.09510534	51
bin	140958.74163124	21
bin	148187.38815714	29
bin	155416.03468305	13
bin	162644.68120895	1030
scalar scenarioPRJP1.node[0].lo0.lo 	droppedPkBitError:count 	0
attr interpolationmode  none
attr source  dropPkBitError
attr title  "packets dropped/bit error, count"
scalar scenarioPRJP1.node[0].lo0.lo 	droppedPkBitError:sum(packetBytes) 	0
attr interpolationmode  none
attr source  dropPkBitError
attr title  "packets dropped/bit error, sum(packetBytes)"
scalar scenarioPRJP1.node[0].lo0.lo 	rcvdPkFromHL:count 	0
attr interpolationmode  none
attr source  packetReceivedFromUpper
attr title  "packets received from higher layer, count"
scalar scenarioPRJP1.node[0].lo0.lo 	rcvdPkFromHL:sum(packetBytes) 	0
attr interpolationmode  none
attr source  packetReceivedFromUpper
attr title  "packets received from higher layer, sum(packetBytes)"
scalar scenarioPRJP1.node[0].lo0.lo 	passedUpPk:count 	0
attr interpolationmode  none
attr source  packetSentToUpper
attr title  "packets passed to higher layer, count"
scalar scenarioPRJP1.node[0].lo0.lo 	passedUpPk:sum(packetBytes) 	0
attr interpolationmode  none
attr source  packetSentToUpper
attr title  "packets passed to higher layer, sum(packetBytes)"
scalar scenarioPRJP1.node[20].app 	"Total sent" 	5002
scalar scenarioPRJP1.node[20].app 	"Total received" 	1207
scalar scenarioPRJP1.node[20].app 	"Total deleted" 	232
scalar scenarioPRJP1.node[20].app 	dropPk:count 	232
attr interpolationmode  none
attr source  dropPk
attr title  "packets dropped, count"
scalar scenarioPRJP1.node[20].app 	dropPk:sum(packetBytes) 	118784
attr interpolationmode  none
attr source  dropPk
attr title  "packets dropped, sum(packetBytes)"
scalar scenarioPRJP1.node[20].app 	outOfOrderPk:count 	0
attr interpolationmode  none
attr source  outOfOrderPk
attr title  "packets received out of order, count"
scalar scenarioPRJP1.node[20].app 	outOfOrderPk:sum(packetBytes) 	0
attr interpolationmode  none
attr source  outOfOrderPk
attr title  "packets received out of order, sum(packetBytes)"
scalar scenarioPRJP1.node[20].app 	rcvdPk:count 	1207
attr interpolationmode  none
attr source  rcvdPk
attr title  "packets received, count"
scalar scenarioPRJP1.node[20].app 	rcvdPk:sum(packetBytes) 	617984
attr interpolationmode  none
attr source  rcvdPk
attr title  "packets received, sum(packetBytes)"
statistic scenarioPRJP1.node[20].app 	endToEndDelay:histogram
field count 1207
field mean 4.7695046079202
field stddev 5.8528356932098
field sum 5756.7920617596
field sqrsum 68769.403161364
field min 0.000891011007
field max 19.917949986671
attr interpolationmode  none
attr source  messageAge(rcvdPk)
attr title  "delay, histogram"
attr unit  s
bin	-INF	0
bin	-9.8536878603605	0
bin	-8.539741602582	0
bin	-7.2257953448036	0
bin	-5.9118490870251	0
bin	-4.5979028292466	0
bin	-3.2839565714682	0
bin	-1.9700103136897	0
bin	-0.65606405591123	539
bin	0.65788220186723	73
bin	1.9718284596457	58
bin	3.2857747174242	74
bin	4.5997209752026	56
bin	5.9136672329811	46
bin	7.2276134907596	51
bin	8.541559748538	66
bin	9.8555060063165	35
bin	11.169452264095	29
bin	12.483398521873	43
bin	13.797344779652	36
bin	15.11129103743	25
bin	16.425237295209	27
bin	17.739183552987	30
bin	19.053129810766	19
bin	20.367076068544	0
bin	21.681022326323	0
bin	22.994968584101	0
bin	24.30891484188	0
bin	25.622861099658	0
bin	26.936807357437	0
bin	28.250753615215	0
bin	29.564699872993	0
scalar scenarioPRJP1.node[20].app 	sentPk:count 	5002
attr interpolationmode  none
attr source  sentPk
attr title  "packets sent, count"
scalar scenarioPRJP1.node[20].app 	sentPk:sum(packetBytes) 	2561024
attr interpolationmode  none
attr source  sentPk
attr title  "packets sent, sum(packetBytes)"
scalar scenarioPRJP1.node[20].udp 	droppedPkBadChecksum:count 	0
attr interpolationmode  none
attr title  "packets dropped (checksum error), count"
scalar scenarioPRJP1.node[20].udp 	droppedPkWrongPort:count 	25
attr interpolationmode  none
attr title  "packets dropped (wrong port), count"
scalar scenarioPRJP1.node[20].udp 	passedUpPk:count 	1439
attr interpolationmode  none
attr title  "packets passed up, count"
scalar scenarioPRJP1.node[20].udp 	rcvdPk:count 	1464
attr interpolationmode  none
attr source  rcvdPk
attr title  "packets received, count"
scalar scenarioPRJP1.node[20].udp 	rcvdPk:sum(packetBytes) 	761280
attr interpolationmode  none
attr source  rcvdPk
attr title  "packets received, sum(packetBytes)"
scalar scenarioPRJP1.node[20].udp 	sentPk:count 	5002
attr interpolationmode  none
attr source  sentPk
attr title  "packets sent, count"
scalar scenarioPRJP1.node[20].udp 	sentPk:sum(packetBytes) 	2601040
attr interpolationmode  none
attr source  sentPk
attr title  "packets sent, sum(packetBytes)"
scalar scenarioPRJP1.node[20].networkLayer.arp 	failedARPResolution:count 	6
attr title  "ARP failed resolutions, count"
scalar scenarioPRJP1.node[20].networkLayer.arp 	completedARPResolution:count 	582
attr title  "ARP completed resolutions, count"
scalar scenarioPRJP1.node[20].networkLayer.arp 	initiatedARPResolution:count 	88
attr title  "ARP initiated resolutions, count"
scalar scenarioPRJP1.node[20].networkLayer.arp 	sentReply:count 	77
attr title  "ARP replies sent, count"
scalar scenarioPRJP1.node[20].networkLayer.arp 	sentReq:count 	144
attr title  "ARP request sent, count"
scalar scenarioPRJP1.node[20].mobility 	startTime 	2.5
scalar scenarioPRJP1.node[20].mobility 	totalTime 	1897.5
scalar scenarioPRJP1.node[20].mobility 	stopTime 	1900
scalar scenarioPRJP1.node[20].mobility 	minSpeed 	2.475662917054e-13
scalar scenarioPRJP1.node[20].mobility 	maxSpeed 	16.844450671071
scalar scenarioPRJP1.node[20].mobility 	totalDistance 	18208.680124601
scalar scenarioPRJP1.node[20].mobility 	totalCO2Emission 	4772.8678265893
scalar scenarioPRJP1.node[20].wlan.mgmt 	dataQueueLen:max 	100
attr interpolationmode  sample-hold
attr title  "data queue length, max"
scalar scenarioPRJP1.node[20].wlan.mgmt 	dataQueueLen:timeavg 	0.0083073495018946
attr interpolationmode  sample-hold
attr title  "data queue length, timeavg"
scalar scenarioPRJP1.node[20].wlan.mgmt 	dropPkByQueue:count 	4
attr interpolationmode  none
attr source  dropPkByQueue
attr title  "packets dropped by queue, count"
scalar scenarioPRJP1.node[20].wlan.mgmt 	dropPkByQueue:sum(packetBytes) 	2304
attr interpolationmode  none
attr source  dropPkByQueue
attr title  "packets dropped by queue, sum(packetBytes)"
scalar scenarioPRJP1.node[20].wlan.mac 	"number of received packets" 	6668
scalar scenarioPRJP1.node[20].wlan.mac 	"number of collisions" 	51210
scalar scenarioPRJP1.node[20].wlan.mac 	"number of internal collisions" 	0
scalar scenarioPRJP1.node[20].wlan.mac 	"number of retry for AC 0" 	13176
scalar scenarioPRJP1.node[20].wlan.mac 	"number of retry for AC 1" 	47
scalar scenarioPRJP1.node[20].wlan.mac 	"number of retry for AC 2" 	0
scalar scenarioPRJP1.node[20].wlan.mac 	"number of retry for AC 3" 	0
scalar scenarioPRJP1.node[20].wlan.mac 	"sent and received bits" 	56951696
scalar scenarioPRJP1.node[20].wlan.mac 	"sent packet within AC 0" 	6368
scalar scenarioPRJP1.node[20].wlan.mac 	"sent packet within AC 1" 	67
scalar scenarioPRJP1.node[20].wlan.mac 	"sent packet within AC 2" 	0
scalar scenarioPRJP1.node[20].wlan.mac 	"sent packet within AC 3" 	0
scalar scenarioPRJP1.node[20].wlan.mac 	"sent in TXOP " 	0
scalar scenarioPRJP1.node[20].wlan.mac 	"sentWithoutRetry AC 0" 	4310
scalar scenarioPRJP1.node[20].wlan.mac 	"sentWithoutRetry AC 1" 	53
scalar scenarioPRJP1.node[20].wlan.mac 	"sentWithoutRetry AC 2" 	0
scalar scenarioPRJP1.node[20].wlan.mac 	"sentWithoutRetry AC 3" 	0
scalar scenarioPRJP1.node[20].wlan.mac 	"numGivenUp AC 0" 	1221
scalar scenarioPRJP1.node[20].wlan.mac 	"numGivenUp AC 1" 	2
scalar scenarioPRJP1.node[20].wlan.mac 	"numGivenUp AC 2" 	0
scalar scenarioPRJP1.node[20].wlan.mac 	"numGivenUp AC 3" 	0
scalar scenarioPRJP1.node[20].wlan.mac 	"numDropped AC 0" 	79
scalar scenarioPRJP1.node[20].wlan.mac 	"numDropped AC 1" 	0
scalar scenarioPRJP1.node[20].wlan.mac 	"numDropped AC 2" 	0
scalar scenarioPRJP1.node[20].wlan.mac 	"numDropped AC 3" 	0
scalar scenarioPRJP1.node[20].wlan.mac 	rcvdPkFromLL:count 	194349
attr interpolationmode  none
attr source  packetReceivedFromLower
attr title  "packets received from lower layer, count"
scalar scenarioPRJP1.node[20].wlan.mac 	rcvdPkFromLL:sum(packetBytes) 	60356555
attr interpolationmode  none
attr source  packetReceivedFromLower
attr title  "packets received from lower layer, sum(packetBytes)"
scalar scenarioPRJP1.node[20].wlan.mac 	sentDownPk:count 	50787
attr interpolationmode  none
attr source  packetSentToLower
attr title  "packets sent to lower layer, count"
scalar scenarioPRJP1.node[20].wlan.mac 	sentDownPk:sum(packetBytes) 	15385881
attr interpolationmode  none
attr source  packetSentToLower
attr title  "packets sent to lower layer, sum(packetBytes)"
scalar scenarioPRJP1.node[20].wlan.mac 	rcvdPkFromHL:count 	30975
attr interpolationmode  none
attr source  packetReceivedFromUpper
attr title  "packets received from higher layer, count"
scalar scenarioPRJP1.node[20].wlan.mac 	rcvdPkFromHL:sum(packetBytes) 	7856227
attr interpolationmode  none
attr source  packetReceivedFromUpper
attr title  "packets received from higher layer, sum(packetBytes)"
scalar scenarioPRJP1.node[20].wlan.mac 	passedUpPk:count 	68891
attr interpolationmode  none
attr source  packetSentToUpper
attr title  "packets passed to higher layer, count"
scalar scenarioPRJP1.node[20].wlan.mac 	passedUpPk:sum(packetBytes) 	13177442
attr interpolationmode  none
attr source  packetSentToUpper
attr title  "packets passed to higher layer, sum(packetBytes)"
statistic scenarioPRJP1.node[20].wlan.radio 	radioChannel:histogram
field count 1
field mean 3
field stddev -nan
field sum 3
field sqrsum 9
field min 3
field max 3
attr interpolationmode  sample-hold
attr source  radioChannelChanged
attr title  "Radio channel, histogram"
bin	-INF	0
bin	2	0
bin	3	1
bin	4	0
scalar scenarioPRJP1.node[20].wlan.radio 	transmissionState:count 	203148
attr interpolationmode  sample-hold
attr source  transmissionStateChanged
attr title  "Radio transmission state, count"
scalar scenarioPRJP1.node[20].wlan.radio 	receptionState:count 	865525
attr interpolationmode  sample-hold
attr source  receptionStateChanged
attr title  "Radio reception state, count"
scalar scenarioPRJP1.node[20].wlan.radio 	radioMode:count 	101576
attr interpolationmode  sample-hold
attr source  radioModeChanged
attr title  "Radio mode, count"
statistic scenarioPRJP1.node[20].wlan.radio 	symbolErrorRate:histogram
field count 0
field mean -nan
field stddev -nan
field sum 0
field sqrsum 0
field min -nan
field max -nan
attr source  symbolErrorRate
attr title  "Symbol error rate, histogram"
bin	-INF	0
bin	-0.5	0
bin	-0.46666666666667	0
bin	-0.43333333333333	0
bin	-0.4	0
bin	-0.36666666666667	0
bin	-0.33333333333333	0
bin	-0.3	0
bin	-0.26666666666667	0
bin	-0.23333333333333	0
bin	-0.2	0
bin	-0.16666666666667	0
bin	-0.13333333333333	0
bin	-0.1	0
bin	-0.066666666666667	0
bin	-0.033333333333333	0
bin	0	0
bin	0.033333333333333	0
bin	0.066666666666667	0
bin	0.1	0
bin	0.13333333333333	0
bin	0.16666666666667	0
bin	0.2	0
bin	0.23333333333333	0
bin	0.26666666666667	0
bin	0.3	0
bin	0.33333333333333	0
bin	0.36666666666667	0
bin	0.4	0
bin	0.43333333333333	0
bin	0.46666666666667	0
bin	0.5	0
statistic scenarioPRJP1.node[20].wlan.radio 	bitErrorRate:histogram
field count 0
field mean -nan
field stddev -nan
field sum 0
field sqrsum 0
field min -nan
field max -nan
attr source  bitErrorRate
attr title  "Bit error rate, histogram"
bin	-INF	0
bin	-0.5	0
bin	-0.46666666666667	0
bin	-0.43333333333333	0
bin	-0.4	0
bin	-0.36666666666667	0
bin	-0.33333333333333	0
bin	-0.3	0
bin	-0.26666666666667	0
bin	-0.23333333333333	0
bin	-0.2	0
bin	-0.16666666666667	0
bin	-0.13333333333333	0
bin	-0.1	0
bin	-0.066666666666667	0
bin	-0.033333333333333	0
bin	0	0
bin	0.033333333333333	0
bin	0.066666666666667	0
bin	0.1	0
bin	0.13333333333333	0
bin	0.16666666666667	0
bin	0.2	0
bin	0.23333333333333	0
bin	0.26666666666667	0
bin	0.3	0
bin	0.33333333333333	0
bin	0.36666666666667	0
bin	0.4	0
bin	0.43333333333333	0
bin	0.46666666666667	0
bin	0.5	0
statistic scenarioPRJP1.node[20].wlan.radio 	packetErrorRate:histogram
field count 194349
field mean 0.23756978199491
field stddev 0.4145937202933
field sum 46171.449560929
field sqrsum 44375.021078078
field min 0
field max 1
attr source  packetErrorRate
attr title  "Packet error rate, histogram"
bin	-INF	0
bin	-1.1083335431705e-05	0
bin	-9.6055573741446e-06	0
bin	-8.1277793165839e-06	0
bin	-6.6500012590232e-06	0
bin	-5.1722232014625e-06	0
bin	-3.6944451439018e-06	0
bin	-2.2166670863411e-06	0
bin	-7.3888902878035e-07	117719
bin	7.3888902878035e-07	1950
bin	2.2166670863411e-06	882
bin	3.6944451439018e-06	631
bin	5.1722232014625e-06	478
bin	6.6500012590232e-06	418
bin	8.1277793165839e-06	287
bin	9.6055573741446e-06	258
bin	1.1083335431705e-05	254
bin	1.2561113489266e-05	229
bin	1.4038891546827e-05	194
bin	1.5516669604387e-05	181
bin	1.6994447661948e-05	155
bin	1.8472225719509e-05	108
bin	1.9950003777069e-05	152
bin	2.142778183463e-05	147
bin	2.2905559892191e-05	125
bin	2.4383337949752e-05	89
bin	2.5861116007312e-05	125
bin	2.7338894064873e-05	116
bin	2.8816672122434e-05	103
bin	3.0294450179994e-05	89
bin	3.1772228237555e-05	80
bin	3.3250006295116e-05	69579
statistic scenarioPRJP1.node[20].wlan.radio 	minSNIR:histogram
field count 194349
field mean 12529.361174692
field stddev 172451.90687215
field sum 2435068814.9403
field sqrsum 5.8103533340764e+15
field min 0.00011110246686745
field max 5632820.5040074
attr source  minSNIR
attr title  "Min SNIR, histogram"
bin	-INF	0
bin	-65000.491526132	0
bin	-56332.892669769	0
bin	-47665.293813406	0
bin	-38997.694957042	0
bin	-30330.096100679	0
bin	-21662.497244315	0
bin	-12994.898387952	0
bin	-4327.2995315885	182864
bin	4340.299324775	5674
bin	13007.898181138	1747
bin	21675.497037502	785
bin	30343.095893865	349
bin	39010.694750229	263
bin	47678.293606592	271
bin	56345.892462955	145
bin	65013.491319319	126
bin	73681.090175682	175
bin	82348.689032046	242
bin	91016.287888409	222
bin	99683.886744772	45
bin	108351.48560114	95
bin	117019.0844575	55
bin	125686.68331386	48
bin	134354.28217023	15
bin	143021.88102659	17
bin	151689.47988295	34
bin	160357.07873932	30
bin	169024.67759568	8
bin	177692.27645204	10
bin	186359.87530841	14
bin	195027.47416477	1115
scalar scenarioPRJP1.node[20].lo0.lo 	droppedPkBitError:count 	0
attr interpolationmode  none
attr source  dropPkBitError
attr title  "packets dropped/bit error, count"
scalar scenarioPRJP1.node[20].lo0.lo 	droppedPkBitError:sum(packetBytes) 	0
attr interpolationmode  none
attr source  dropPkBitError
attr title  "packets dropped/bit error, sum(packetBytes)"
scalar scenarioPRJP1.node[20].lo0.lo 	rcvdPkFromHL:count 	0
attr interpolationmode  none
attr source  packetReceivedFromUpper
attr title  "packets received from higher layer, count"
scalar scenarioPRJP1.node[20].lo0.lo 	rcvdPkFromHL:sum(packetBytes) 	0
attr interpolationmode  none
attr source  packetReceivedFromUpper
attr title  "packets received from higher layer, sum(packetBytes)"
scalar scenarioPRJP1.node[20].lo0.lo 	passedUpPk:count 	0
attr interpolationmode  none
attr source  packetSentToUpper
attr title  "packets passed to higher layer, count"
scalar scenarioPRJP1.node[20].lo0.lo 	passedUpPk:sum(packetBytes) 	0
attr interpolationmode  none
attr source  packetSentToUpper
attr title  "packets passed to higher layer, sum(packetBytes)"
scalar scenarioPRJP1.node[1].app 	"Total sent" 	5037
scalar scenarioPRJP1.node[1].app 	"Total received" 	1249
scalar scenarioPRJP1.node[1].app 	"Total deleted" 	211
scalar scenarioPRJP1.node[1].app 	dropPk:count 	211
attr interpolationmode  none
attr source  dropPk
attr title  "packets dropped, count"
scalar scenarioPRJP1.node[1].app 	dropPk:sum(packetBytes) 	108032
attr interpolationmode  none
attr source  dropPk
attr title  "packets dropped, sum(packetBytes)"
scalar scenarioPRJP1.node[1].app 	outOfOrderPk:count 	0
attr interpolationmode  none
attr source  outOfOrderPk
attr title  "packets received out of order, count"
scalar scenarioPRJP1.node[1].app 	outOfOrderPk:sum(packetBytes) 	0
attr interpolationmode  none
attr source  outOfOrderPk
attr title  "packets received out of order, sum(packetBytes)"
scalar scenarioPRJP1.node[1].app 	rcvdPk:count 	1249
attr interpolationmode  none
attr source  rcvdPk
attr title  "packets received, count"
scalar scenarioPRJP1.node[1].app 	rcvdPk:sum(packetBytes) 	639488
attr interpolationmode  none
attr source  rcvdPk
attr title  "packets received, sum(packetBytes)"
statistic scenarioPRJP1.node[1].app 	endToEndDelay:histogram
field count 1249
field mean 4.3597841903449
field stddev 5.7038923022598
field sum 5445.3704537408
field sqrsum 64343.555484721
field min 0.000886509643
field max 19.994282973888
attr interpolationmode  none
attr source  messageAge(rcvdPk)
attr title  "delay, histogram"
attr unit  s
bin	-INF	0
bin	-9.8089756549715	0
bin	-8.5009934225554	0
bin	-7.1930111901394	0
bin	-5.8850289577233	0
bin	-4.5770467253072	0
bin	-3.2690644928912	0
bin	-1.9610822604751	0
bin	-0.65310002805903	589
bin	0.65488220435703	85
bin	1.9628644367731	80
bin	3.2708466691892	54
bin	4.5788289016052	60
bin	5.8868111340213	44
bin	7.1947933664374	56
bin	8.5027755988534	30
bin	9.8107578312695	54
bin	11.118740063686	41
bin	12.426722296102	27
bin	13.734704528518	29
bin	15.042686760934	20
bin	16.35066899335	38
bin	17.658651225766	20
bin	18.966633458182	22
bin	20.274615690598	0
bin	21.582597923014	0
bin	22.89058015543	0
bin	24.198562387846	0
bin	25.506544620262	0
bin	26.814526852678	0
bin	28.122509085094	0
bin	29.430491317511	0
scalar scenarioPRJP1.node[1].app 	sentPk:count 	5037
attr interpolationmode  none
attr source  sentPk
attr title  "packets sent, count"
scalar scenarioPRJP1.node[1].app 	sentPk:sum(packetBytes) 	2578944
attr interpolationmode  none
attr source  sentPk
attr title  "packets sent, sum(packetBytes)"
scalar scenarioPRJP1.node[1].udp 	droppedPkBadChecksum:count 	0
attr interpolationmode  none
attr title  "packets dropped (checksum error), count"
scalar scenarioPRJP1.node[1].udp 	droppedPkWrongPort:count 	17
attr interpolationmode  none
attr title  "packets dropped (wrong port), count"
scalar scenarioPRJP1.node[1].udp 	passedUpPk:count 	1460
attr interpolationmode  none
attr title  "packets passed up, count"
scalar scenarioPRJP1.node[1].udp 	rcvdPk:count 	1477
attr interpolationmode  none
attr source  rcvdPk
attr title  "packets received, count"
scalar scenarioPRJP1.node[1].udp 	rcvdPk:sum(packetBytes) 	768040
attr interpolationmode  none
attr source  rcvdPk
attr title  "packets received, sum(packetBytes)"
scalar scenarioPRJP1.node[1].udp 	sentPk:count 	5037
attr interpolationmode  none
attr source  sentPk
attr title  "packets sent, count"
scalar scenarioPRJP1.node[1].udp 	sentPk:sum(packetBytes) 	2619240
attr interpolationmode  none
attr source  sentPk
attr title  "packets sent, sum(packetBytes)"
scalar scenarioPRJP1.node[1].networkLayer.arp 	failedARPResolution:count 	5
attr title  "ARP failed resolutions, count"
scalar scenarioPRJP1.node[1].networkLayer.arp 	completedARPResolution:count 	677
attr title  "ARP completed resolutions, count"
scalar scenarioPRJP1.node[1].networkLayer.arp 	initiatedARPResolution:count 	108
attr title  "ARP initiated resolutions, count"
scalar scenarioPRJP1.node[1].networkLayer.arp 	sentReply:count 	69
attr title  "ARP replies sent, count"
scalar scenarioPRJP1.node[1].networkLayer.arp 	sentReq:count 	178
attr title  "ARP request sent, count"
scalar scenarioPRJP1.node[1].mobility 	startTime 	0.1
scalar scenarioPRJP1.node[1].mobility 	totalTime 	1899.9
scalar scenarioPRJP1.node[1].mobility 	stopTime 	1900
scalar scenarioPRJP1.node[1].mobility 	minSpeed 	2.4754622341775e-13
scalar scenarioPRJP1.node[1].mobility 	maxSpeed 	16.74042144108
scalar scenarioPRJP1.node[1].mobility 	totalDistance 	17915.647258048
scalar scenarioPRJP1.node[1].mobility 	totalCO2Emission 	4659.4523063898
scalar scenarioPRJP1.node[1].wlan.mgmt 	dataQueueLen:max 	37
attr interpolationmode  sample-hold
attr title  "data queue length, max"
scalar scenarioPRJP1.node[1].wlan.mgmt 	dataQueueLen:timeavg 	0
attr interpolationmode  sample-hold
attr title  "data queue length, timeavg"
scalar scenarioPRJP1.node[1].wlan.mgmt 	dropPkByQueue:count 	0
attr interpolationmode  none
attr source  dropPkByQueue
attr title  "packets dropped by queue, count"
scalar scenarioPRJP1.node[1].wlan.mgmt 	dropPkByQueue:sum(packetBytes) 	0
attr interpolationmode  none
attr source  dropPkByQueue
attr title  "packets dropped by queue, sum(packetBytes)"
scalar scenarioPRJP1.node[1].wlan.mac 	"number of received packets" 	6484
scalar scenarioPRJP1.node[1].wlan.mac 	"number of collisions" 	56119
scalar scenarioPRJP1.node[1].wlan.mac 	"number of internal collisions" 	3
scalar scenarioPRJP1.node[1].wlan.mac 	"number of retry for AC 0" 	12899
scalar scenarioPRJP1.node[1].wlan.mac 	"number of retry for AC 1" 	36
scalar scenarioPRJP1.node[1].wlan.mac 	"number of retry for AC 2" 	0
scalar scenarioPRJP1.node[1].wlan.mac 	"number of retry for AC 3" 	0
scalar scenarioPRJP1.node[1].wlan.mac 	"sent and received bits" 	57022880
scalar scenarioPRJP1.node[1].wlan.mac 	"sent packet within AC 0" 	6372
scalar scenarioPRJP1.node[1].wlan.mac 	"sent packet within AC 1" 	35
scalar scenarioPRJP1.node[1].wlan.mac 	"sent packet within AC 2" 	0
scalar scenarioPRJP1.node[1].wlan.mac 	"sent packet within AC 3" 	0
scalar scenarioPRJP1.node[1].wlan.mac 	"sent in TXOP " 	0
scalar scenarioPRJP1.node[1].wlan.mac 	"sentWithoutRetry AC 0" 	4224
scalar scenarioPRJP1.node[1].wlan.mac 	"sentWithoutRetry AC 1" 	20
scalar scenarioPRJP1.node[1].wlan.mac 	"sentWithoutRetry AC 2" 	0
scalar scenarioPRJP1.node[1].wlan.mac 	"sentWithoutRetry AC 3" 	0
scalar scenarioPRJP1.node[1].wlan.mac 	"numGivenUp AC 0" 	1122
scalar scenarioPRJP1.node[1].wlan.mac 	"numGivenUp AC 1" 	1
scalar scenarioPRJP1.node[1].wlan.mac 	"numGivenUp AC 2" 	0
scalar scenarioPRJP1.node[1].wlan.mac 	"numGivenUp AC 3" 	0
scalar scenarioPRJP1.node[1].wlan.mac 	"numDropped AC 0" 	1
scalar scenarioPRJP1.node[1].wlan.mac 	"numDropped AC 1" 	0
scalar scenarioPRJP1.node[1].wlan.mac 	"numDropped AC 2" 	0
scalar scenarioPRJP1.node[1].wlan.mac 	"numDropped AC 3" 	0
scalar scenarioPRJP1.node[1].wlan.mac 	rcvdPkFromLL:count 	213704
attr interpolationmode  none
attr source  packetReceivedFromLower
attr title  "packets received from lower layer, count"
scalar scenarioPRJP1.node[1].wlan.mac 	rcvdPkFromLL:sum(packetBytes) 	66128805
attr interpolationmode  none
attr source  packetReceivedFromLower
attr title  "packets received from lower layer, sum(packetBytes)"
scalar scenarioPRJP1.node[1].wlan.mac 	sentDownPk:count 	50605
attr interpolationmode  none
attr source  packetSentToLower
attr title  "packets sent to lower layer, count"
scalar scenarioPRJP1.node[1].wlan.mac 	sentDownPk:sum(packetBytes) 	15166752
attr interpolationmode  none
attr source  packetSentToLower
attr title  "packets sent to lower layer, sum(packetBytes)"
scalar scenarioPRJP1.node[1].wlan.mac 	rcvdPkFromHL:count 	31190
attr interpolationmode  none
attr source  packetReceivedFromUpper
attr title  "packets received from higher layer, count"
scalar scenarioPRJP1.node[1].wlan.mac 	rcvdPkFromHL:sum(packetBytes) 	7770803
attr interpolationmode  none
attr source  packetReceivedFromUpper
attr title  "packets received from higher layer, sum(packetBytes)"
scalar scenarioPRJP1.node[1].wlan.mac 	passedUpPk:count 	76635
attr interpolationmode  none
attr source  packetSentToUpper
attr title  "packets passed to higher layer, count"
scalar scenarioPRJP1.node[1].wlan.mac 	passedUpPk:sum(packetBytes) 	14091556
attr interpolationmode  none
attr source  packetSentToUpper
attr title  "packets passed to higher layer, sum(packetBytes)"
statistic scenarioPRJP1.node[1].wlan.radio 	radioChannel:histogram
field count 1
field mean 3
field stddev -nan
field sum 3
field sqrsum 9
field min 3
field max 3
attr interpolationmode  sample-hold
attr source  radioChannelChanged
attr title  "Radio channel, histogram"
bin	-INF	0
bin	2	0
bin	3	1
bin	4	0
scalar scenarioPRJP1.node[1].wlan.radio 	transmissionState:count 	202420
attr interpolationmode  sample-hold
attr source  transmissionStateChanged
attr title  "Radio transmission state, count"
scalar scenarioPRJP1.node[1].wlan.radio 	receptionState:count 	908664
attr interpolationmode  sample-hold
attr source  receptionStateChanged
attr title  "Radio reception state, count"
scalar scenarioPRJP1.node[1].wlan.radio 	radioMode:count 	101212
attr interpolationmode  sample-hold
attr source  radioModeChanged
attr title  "Radio mode, count"
statistic scenarioPRJP1.node[1].wlan.radio 	symbolErrorRate:histogram
field count 0
field mean -nan
field stddev -nan
field sum 0
field sqrsum 0
field min -nan
field max -nan
attr source  symbolErrorRate
attr title  "Symbol error rate, histogram"
bin	-INF	0
bin	-0.5	0
bin	-0.46666666666667	0
bin	-0.43333333333333	0
bin	-0.4	0
bin	-0.36666666666667	0
bin	-0.33333333333333	0
bin	-0.3	0
bin	-0.26666666666667	0
bin	-0.23333333333333	0
bin	-0.2	0
bin	-0.16666666666667	0
bin	-0.13333333333333	0
bin	-0.1	0
bin	-0.066666666666667	0
bin	-0.033333333333333	0
bin	0	0
bin	0.033333333333333	0
bin	0.066666666666667	0
bin	0.1	0
bin	0.13333333333333	0
bin	0.16666666666667	0
bin	0.2	0
bin	0.23333333333333	0
bin	0.26666666666667	0
bin	0.3	0
bin	0.33333333333333	0
bin	0.36666666666667	0
bin	0.4	0
bin	0.43333333333333	0
bin	0.46666666666667	0
bin	0.5	0
statistic scenarioPRJP1.node[1].wlan.radio 	bitErrorRate:histogram
field count 0
field mean -nan
field stddev -nan
field sum 0
field sqrsum 0
field min -nan
field max -nan
attr source  bitErrorRate
attr title  "Bit error rate, histogram"
bin	-INF	0
bin	-0.5	0
bin	-0.46666666666667	0
bin	-0.43333333333333	0
bin	-0.4	0
bin	-0.36666666666667	0
bin	-0.33333333333333	0
bin	-0.3	0
bin	-0.26666666666667	0
bin	-0.23333333333333	0
bin	-0.2	0
bin	-0.16666666666667	0
bin	-0.13333333333333	0
bin	-0.1	0
bin	-0.066666666666667	0
bin	-0.033333333333333	0
bin	0	0
bin	0.033333333333333	0
bin	0.066666666666667	0
bin	0.1	0
bin	0.13333333333333	0
bin	0.16666666666667	0
bin	0.2	0
bin	0.23333333333333	0
bin	0.26666666666667	0
bin	0.3	0
bin	0.33333333333333	0
bin	0.36666666666667	0
bin	0.4	0
bin	0.43333333333333	0
bin	0.46666666666667	0
bin	0.5	0
statistic scenarioPRJP1.node[1].wlan.radio 	packetErrorRate:histogram
field count 213704
field mean 0.23797976660751
field stddev 0.4152983076683
field sum 50857.228043092
field sqrsum 48960.921324108
field min 0
field max 1
attr source  packetErrorRate
attr title  "Packet error rate, histogram"
bin	-INF	0
bin	-0.5	0
bin	-0.43333333333333	0
bin	-0.36666666666667	0
bin	-0.3	0
bin	-0.23333333333333	0
bin	-0.16666666666667	0
bin	-0.1	0
bin	-0.033333333333333	155033
bin	0.033333333333333	3203
bin	0.1	1544
bin	0.16666666666667	1042
bin	0.23333333333333	849
bin	0.3	686
bin	0.36666666666667	604
bin	0.43333333333333	498
bin	0.5	497
bin	0.56666666666667	500
bin	0.63333333333333	476
bin	0.7	510
bin	0.76666666666667	573
bin	0.83333333333333	649
bin	0.9	1043
bin	0.96666666666667	45997
bin	1.0333333333333	0
bin	1.1	0
bin	1.1666666666667	0
bin	1.2333333333333	0
bin	1.3	0
bin	1.3666666666667	0
bin	1.4333333333333	0
bin	1.5	0
statistic scenarioPRJP1.node[1].wlan.radio 	minSNIR:histogram
field count 213704
field mean 5741.960122233
field stddev 87135.735065646
field sum 1227079845.9617
field sqrsum 1.6296150041958e+15
field min 0.00016130790426026
field max 3303685.9307757
attr source  minSNIR
attr title  "Min SNIR, histogram"
bin	-INF	0
bin	-256826.17487735	0
bin	-222582.66071594	0
bin	-188339.14655454	0
bin	-154095.63239313	0
bin	-119852.11823173	0
bin	-85608.604070323	0
bin	-51365.089908918	0
bin	-17121.575747513	209612
bin	17121.938413892	1648
bin	51365.452575298	815
bin	85608.966736703	370
bin	119852.48089811	148
bin	154095.99505951	78
bin	188339.50922092	68
bin	222583.02338232	46
bin	256826.53754373	49
bin	291070.05170513	28
bin	325313.56586654	32
bin	359557.08002794	18
bin	393800.59418935	10
bin	428044.10835075	12
bin	462287.62251216	14
bin	496531.13667356	14
bin	530774.65083497	20
bin	565018.16499637	47
bin	599261.67915778	30
bin	633505.19331918	19
bin	667748.70748059	75
bin	701992.22164199	326
bin	736235.7358034	6
bin	770479.2499648	219
scalar scenarioPRJP1.node[1].lo0.lo 	droppedPkBitError:count 	0
attr interpolationmode  none
attr source  dropPkBitError
attr title  "packets dropped/bit error, count"
scalar scenarioPRJP1.node[1].lo0.lo 	droppedPkBitError:sum(packetBytes) 	0
attr interpolationmode  none
attr source  dropPkBitError
attr title  "packets dropped/bit error, sum(packetBytes)"
scalar scenarioPRJP1.node[1].lo0.lo 	rcvdPkFromHL:count 	0
attr interpolationmode  none
attr source  packetReceivedFromUpper
attr title  "packets received from higher layer, count"
scalar scenarioPRJP1.node[1].lo0.lo 	rcvdPkFromHL:sum(packetBytes) 	0
attr interpolationmode  none
attr source  packetReceivedFromUpper
attr title  "packets received from higher layer, sum(packetBytes)"
scalar scenarioPRJP1.node[1].lo0.lo 	passedUpPk:count 	0
attr interpolationmode  none
attr source  packetSentToUpper
attr title  "packets passed to higher layer, count"
scalar scenarioPRJP1.node[1].lo0.lo 	passedUpPk:sum(packetBytes) 	0
attr interpolationmode  none
attr source  packetSentToUpper
attr title  "packets passed to higher layer, sum(packetBytes)"
scalar scenarioPRJP1.node[21].app 	"Total sent" 	5023
scalar scenarioPRJP1.node[21].app 	"Total received" 	1178
scalar scenarioPRJP1.node[21].app 	"Total deleted" 	214
scalar scenarioPRJP1.node[21].app 	dropPk:count 	214
attr interpolationmode  none
attr source  dropPk
attr title  "packets dropped, count"
scalar scenarioPRJP1.node[21].app 	dropPk:sum(packetBytes) 	109568
attr interpolationmode  none
attr source  dropPk
attr title  "packets dropped, sum(packetBytes)"
scalar scenarioPRJP1.node[21].app 	outOfOrderPk:count 	2
attr interpolationmode  none
attr source  outOfOrderPk
attr title  "packets received out of order, count"
scalar scenarioPRJP1.node[21].app 	outOfOrderPk:sum(packetBytes) 	1024
attr interpolationmode  none
attr source  outOfOrderPk
attr title  "packets received out of order, sum(packetBytes)"
scalar scenarioPRJP1.node[21].app 	rcvdPk:count 	1178
attr interpolationmode  none
attr source  rcvdPk
attr title  "packets received, count"
scalar scenarioPRJP1.node[21].app 	rcvdPk:sum(packetBytes) 	603136
attr interpolationmode  none
attr source  rcvdPk
attr title  "packets received, sum(packetBytes)"
statistic scenarioPRJP1.node[21].app 	endToEndDelay:histogram
field count 1178
field mean 4.4065369562507
field stddev 5.8367860111606
field sum 5190.9005344634
field sqrsum 62972.014537808
field min 0.000891037518
field max 19.963170631644
attr interpolationmode  none
attr source  messageAge(rcvdPk)
attr title  "delay, histogram"
attr unit  s
bin	-INF	0
bin	-9.8982332028645	0
bin	-8.5783499366138	0
bin	-7.258466670363	0
bin	-5.9385834041123	0
bin	-4.6187001378616	0
bin	-3.2988168716108	0
bin	-1.9789336053601	0
bin	-0.65905033910937	568
bin	0.66083292714137	79
bin	1.9807161933921	64
bin	3.3005994596428	65
bin	4.6204827258936	51
bin	5.9403659921443	45
bin	7.260249258395	38
bin	8.5801325246458	30
bin	9.9000157908965	35
bin	11.219899057147	40
bin	12.539782323398	30
bin	13.859665589649	24
bin	15.179548855899	36
bin	16.49943212215	30
bin	17.819315388401	28
bin	19.139198654652	15
bin	20.459081920902	0
bin	21.778965187153	0
bin	23.098848453404	0
bin	24.418731719655	0
bin	25.738614985905	0
bin	27.058498252156	0
bin	28.378381518407	0
bin	29.698264784657	0
scalar scenarioPRJP1.node[21].app 	sentPk:count 	5023
attr interpolationmode  none
attr source  sentPk
attr title  "packets sent, count"
scalar scenarioPRJP1.node[21].app 	sentPk:sum(packetBytes) 	2571776
attr interpolationmode  none
attr source  sentPk
attr title  "packets sent, sum(packetBytes)"
scalar scenarioPRJP1.node[21].udp 	droppedPkBadChecksum:count 	0
attr interpolationmode  none
attr title  "packets dropped (checksum error), count"
scalar scenarioPRJP1.node[21].udp 	droppedPkWrongPort:count 	5
attr interpolationmode  none
attr title  "packets dropped (wrong port), count"
scalar scenarioPRJP1.node[21].udp 	passedUpPk:count 	1394
attr interpolationmode  none
attr title  "packets passed up, count"
scalar scenarioPRJP1.node[21].udp 	rcvdPk:count 	1399
attr interpolationmode  none
attr source  rcvdPk
attr title  "packets received, count"
scalar scenarioPRJP1.node[21].udp 	rcvdPk:sum(packetBytes) 	727480
attr interpolationmode  none
attr source  rcvdPk
attr title  "packets received, sum(packetBytes)"
scalar scenarioPRJP1.node[21].udp 	sentPk:count 	5023
attr interpolationmode  none
attr source  sentPk
attr title  "packets sent, count"
scalar scenarioPRJP1.node[21].udp 	sentPk:sum(packetBytes) 	2611960
attr interpolationmode  none
attr source  sentPk
attr title  "packets sent, sum(packetBytes)"
scalar scenarioPRJP1.node[21].networkLayer.arp 	failedARPResolution:count 	7
attr title  "ARP failed resolutions, count"
scalar scenarioPRJP1.node[21].networkLayer.arp 	completedARPResolution:count 	615
attr title  "ARP completed resolutions, count"
scalar scenarioPRJP1.node[21].networkLayer.arp 	initiatedARPResolution:count 	93
attr title  "ARP initiated resolutions, count"
scalar scenarioPRJP1.node[21].networkLayer.arp 	sentReply:count 	73
attr title  "ARP replies sent, count"
scalar scenarioPRJP1.node[21].networkLayer.arp 	sentReq:count 	151
attr title  "ARP request sent, count"
scalar scenarioPRJP1.node[21].mobility 	startTime 	2.5
scalar scenarioPRJP1.node[21].mobility 	totalTime 	1897.5
scalar scenarioPRJP1.node[21].mobility 	stopTime 	1900
scalar scenarioPRJP1.node[21].mobility 	minSpeed 	2.4755004593299e-13
scalar scenarioPRJP1.node[21].mobility 	maxSpeed 	16.474884464387
scalar scenarioPRJP1.node[21].mobility 	totalDistance 	18680.500270337
scalar scenarioPRJP1.node[21].mobility 	totalCO2Emission 	4701.0902415915
scalar scenarioPRJP1.node[21].wlan.mgmt 	dataQueueLen:max 	74
attr interpolationmode  sample-hold
attr title  "data queue length, max"
scalar scenarioPRJP1.node[21].wlan.mgmt 	dataQueueLen:timeavg 	0.0021547286564632
attr interpolationmode  sample-hold
attr title  "data queue length, timeavg"
scalar scenarioPRJP1.node[21].wlan.mgmt 	dropPkByQueue:count 	0
attr interpolationmode  none
attr source  dropPkByQueue
attr title  "packets dropped by queue, count"
scalar scenarioPRJP1.node[21].wlan.mgmt 	dropPkByQueue:sum(packetBytes) 	0
attr interpolationmode  none
attr source  dropPkByQueue
attr title  "packets dropped by queue, sum(packetBytes)"
scalar scenarioPRJP1.node[21].wlan.mac 	"number of received packets" 	6037
scalar scenarioPRJP1.node[21].wlan.mac 	"number of collisions" 	47617
scalar scenarioPRJP1.node[21].wlan.mac 	"number of internal collisions" 	0
scalar scenarioPRJP1.node[21].wlan.mac 	"number of retry for AC 0" 	11242
scalar scenarioPRJP1.node[21].wlan.mac 	"number of retry for AC 1" 	14
scalar scenarioPRJP1.node[21].wlan.mac 	"number of retry for AC 2" 	0
scalar scenarioPRJP1.node[21].wlan.mac 	"number of retry for AC 3" 	0
scalar scenarioPRJP1.node[21].wlan.mac 	"sent and received bits" 	55531712
scalar scenarioPRJP1.node[21].wlan.mac 	"sent packet within AC 0" 	6165
scalar scenarioPRJP1.node[21].wlan.mac 	"sent packet within AC 1" 	14
scalar scenarioPRJP1.node[21].wlan.mac 	"sent packet within AC 2" 	0
scalar scenarioPRJP1.node[21].wlan.mac 	"sent packet within AC 3" 	0
scalar scenarioPRJP1.node[21].wlan.mac 	"sent in TXOP " 	0
scalar scenarioPRJP1.node[21].wlan.mac 	"sentWithoutRetry AC 0" 	4266
scalar scenarioPRJP1.node[21].wlan.mac 	"sentWithoutRetry AC 1" 	8
scalar scenarioPRJP1.node[21].wlan.mac 	"sentWithoutRetry AC 2" 	0
scalar scenarioPRJP1.node[21].wlan.mac 	"sentWithoutRetry AC 3" 	0
scalar scenarioPRJP1.node[21].wlan.mac 	"numGivenUp AC 0" 	954
scalar scenarioPRJP1.node[21].wlan.mac 	"numGivenUp AC 1" 	0
scalar scenarioPRJP1.node[21].wlan.mac 	"numGivenUp AC 2" 	0
scalar scenarioPRJP1.node[21].wlan.mac 	"numGivenUp AC 3" 	0
scalar scenarioPRJP1.node[21].wlan.mac 	"numDropped AC 0" 	43
scalar scenarioPRJP1.node[21].wlan.mac 	"numDropped AC 1" 	0
scalar scenarioPRJP1.node[21].wlan.mac 	"numDropped AC 2" 	0
scalar scenarioPRJP1.node[21].wlan.mac 	"numDropped AC 3" 	0
scalar scenarioPRJP1.node[21].wlan.mac 	rcvdPkFromLL:count 	196644
attr interpolationmode  none
attr source  packetReceivedFromLower
attr title  "packets received from lower layer, count"
scalar scenarioPRJP1.node[21].wlan.mac 	rcvdPkFromLL:sum(packetBytes) 	60174551
attr interpolationmode  none
attr source  packetReceivedFromLower
attr title  "packets received from lower layer, sum(packetBytes)"
scalar scenarioPRJP1.node[21].wlan.mac 	sentDownPk:count 	47860
attr interpolationmode  none
attr source  packetSentToLower
attr title  "packets sent to lower layer, count"
scalar scenarioPRJP1.node[21].wlan.mac 	sentDownPk:sum(packetBytes) 	13936361
attr interpolationmode  none
attr source  packetSentToLower
attr title  "packets sent to lower layer, sum(packetBytes)"
scalar scenarioPRJP1.node[21].wlan.mac 	rcvdPkFromHL:count 	30610
attr interpolationmode  none
attr source  packetReceivedFromUpper
attr title  "packets received from higher layer, count"
scalar scenarioPRJP1.node[21].wlan.mac 	rcvdPkFromHL:sum(packetBytes) 	7509330
attr interpolationmode  none
attr source  packetReceivedFromUpper
attr title  "packets received from higher layer, sum(packetBytes)"
scalar scenarioPRJP1.node[21].wlan.mac 	passedUpPk:count 	74239
attr interpolationmode  none
attr source  packetSentToUpper
attr title  "packets passed to higher layer, count"
scalar scenarioPRJP1.node[21].wlan.mac 	passedUpPk:sum(packetBytes) 	13570855
attr interpolationmode  none
attr source  packetSentToUpper
attr title  "packets passed to higher layer, sum(packetBytes)"
statistic scenarioPRJP1.node[21].wlan.radio 	radioChannel:histogram
field count 1
field mean 3
field stddev -nan
field sum 3
field sqrsum 9
field min 3
field max 3
attr interpolationmode  sample-hold
attr source  radioChannelChanged
attr title  "Radio channel, histogram"
bin	-INF	0
bin	2	0
bin	3	1
bin	4	0
scalar scenarioPRJP1.node[21].wlan.radio 	transmissionState:count 	191440
attr interpolationmode  sample-hold
attr source  transmissionStateChanged
attr title  "Radio transmission state, count"
scalar scenarioPRJP1.node[21].wlan.radio 	receptionState:count 	812338
attr interpolationmode  sample-hold
attr source  receptionStateChanged
attr title  "Radio reception state, count"
scalar scenarioPRJP1.node[21].wlan.radio 	radioMode:count 	95722
attr interpolationmode  sample-hold
attr source  radioModeChanged
attr title  "Radio mode, count"
statistic scenarioPRJP1.node[21].wlan.radio 	symbolErrorRate:histogram
field count 0
field mean -nan
field stddev -nan
field sum 0
field sqrsum 0
field min -nan
field max -nan
attr source  symbolErrorRate
attr title  "Symbol error rate, histogram"
bin	-INF	0
bin	-0.5	0
bin	-0.46666666666667	0
bin	-0.43333333333333	0
bin	-0.4	0
bin	-0.36666666666667	0
bin	-0.33333333333333	0
bin	-0.3	0
bin	-0.26666666666667	0
bin	-0.23333333333333	0
bin	-0.2	0
bin	-0.16666666666667	0
bin	-0.13333333333333	0
bin	-0.1	0
bin	-0.066666666666667	0
bin	-0.033333333333333	0
bin	0	0
bin	0.033333333333333	0
bin	0.066666666666667	0
bin	0.1	0
bin	0.13333333333333	0
bin	0.16666666666667	0
bin	0.2	0
bin	0.23333333333333	0
bin	0.26666666666667	0
bin	0.3	0
bin	0.33333333333333	0
bin	0.36666666666667	0
bin	0.4	0
bin	0.43333333333333	0
bin	0.46666666666667	0
bin	0.5	0
statistic scenarioPRJP1.node[21].wlan.radio 	bitErrorRate:histogram
field count 0
field mean -nan
field stddev -nan
field sum 0
field sqrsum 0
field min -nan
field max -nan
attr source  bitErrorRate
attr title  "Bit error rate, histogram"
bin	-INF	0
bin	-0.5	0
bin	-0.46666666666667	0
bin	-0.43333333333333	0
bin	-0.4	0
bin	-0.36666666666667	0
bin	-0.33333333333333	0
bin	-0.3	0
bin	-0.26666666666667	0
bin	-0.23333333333333	0
bin	-0.2	0
bin	-0.16666666666667	0
bin	-0.13333333333333	0
bin	-0.1	0
bin	-0.066666666666667	0
bin	-0.033333333333333	0
bin	0	0
bin	0.033333333333333	0
bin	0.066666666666667	0
bin	0.1	0
bin	0.13333333333333	0
bin	0.16666666666667	0
bin	0.2	0
bin	0.23333333333333	0
bin	0.26666666666667	0
bin	0.3	0
bin	0.33333333333333	0
bin	0.36666666666667	0
bin	0.4	0
bin	0.43333333333333	0
bin	0.46666666666667	0
bin	0.5	0
statistic scenarioPRJP1.node[21].wlan.radio 	packetErrorRate:histogram
field count 196644
field mean 0.2169460009273
field stddev 0.40103047097159
field sum 42661.129406347
field sqrsum 40880.358151747
field min 0
field max 1
attr source  packetErrorRate
attr title  "Packet error rate, histogram"
bin	-INF	0
bin	-0.5	0
bin	-0.43333333333333	0
bin	-0.36666666666667	0
bin	-0.3	0
bin	-0.23333333333333	0
bin	-0.16666666666667	0
bin	-0.1	0
bin	-0.033333333333333	146621
bin	0.033333333333333	2959
bin	0.1	1478
bin	0.16666666666667	978
bin	0.23333333333333	825
bin	0.3	684
bin	0.36666666666667	599
bin	0.43333333333333	505
bin	0.5	459
bin	0.56666666666667	472
bin	0.63333333333333	438
bin	0.7	421
bin	0.76666666666667	503
bin	0.83333333333333	571
bin	0.9	888
bin	0.96666666666667	38243
bin	1.0333333333333	0
bin	1.1	0
bin	1.1666666666667	0
bin	1.2333333333333	0
bin	1.3	0
bin	1.3666666666667	0
bin	1.4333333333333	0
bin	1.5	0
statistic scenarioPRJP1.node[21].wlan.radio 	minSNIR:histogram
field count 196644
field mean 6661.2616622362
field stddev 105710.44164231
field sum 1309897138.3088
field sqrsum 2.2061516026172e+15
field min 0.00017518007736331
field max 3012958.8769377
attr source  minSNIR
attr title  "Min SNIR, histogram"
bin	-INF	0
bin	-199000.71150361	0
bin	-172467.2547092	0
bin	-145933.79791479	0
bin	-119400.34112038	0
bin	-92866.884325969	0
bin	-66333.42753156	0
bin	-39799.970737151	0
bin	-13266.513942741	191909
bin	13266.942851668	2349
bin	39800.399646078	655
bin	66333.856440487	325
bin	92867.313234897	151
bin	119400.77002931	181
bin	145934.22682372	78
bin	172467.68361812	92
bin	199001.14041253	64
bin	225534.59720694	28
bin	252068.05400135	29
bin	278601.51079576	23
bin	305134.96759017	19
bin	331668.42438458	12
bin	358201.88117899	12
bin	384735.3379734	22
bin	411268.79476781	9
bin	437802.25156222	4
bin	464335.70835663	9
bin	490869.16515104	18
bin	517402.62194545	6
bin	543936.07873986	40
bin	570469.53553427	68
bin	597002.99232868	541
scalar scenarioPRJP1.node[21].lo0.lo 	droppedPkBitError:count 	0
attr interpolationmode  none
attr source  dropPkBitError
attr title  "packets dropped/bit error, count"
scalar scenarioPRJP1.node[21].lo0.lo 	droppedPkBitError:sum(packetBytes) 	0
attr interpolationmode  none
attr source  dropPkBitError
attr title  "packets dropped/bit error, sum(packetBytes)"
scalar scenarioPRJP1.node[21].lo0.lo 	rcvdPkFromHL:count 	1
attr interpolationmode  none
attr source  packetReceivedFromUpper
attr title  "packets received from higher layer, count"
scalar scenarioPRJP1.node[21].lo0.lo 	rcvdPkFromHL:sum(packetBytes) 	56
attr interpolationmode  none
attr source  packetReceivedFromUpper
attr title  "packets received from higher layer, sum(packetBytes)"
scalar scenarioPRJP1.node[21].lo0.lo 	passedUpPk:count 	1
attr interpolationmode  none
attr source  packetSentToUpper
attr title  "packets passed to higher layer, count"
scalar scenarioPRJP1.node[21].lo0.lo 	passedUpPk:sum(packetBytes) 	56
attr interpolationmode  none
attr source  packetSentToUpper
attr title  "packets passed to higher layer, sum(packetBytes)"
scalar scenarioPRJP1.node[2].app 	"Total sent" 	5013
scalar scenarioPRJP1.node[2].app 	"Total received" 	1289
scalar scenarioPRJP1.node[2].app 	"Total deleted" 	208
scalar scenarioPRJP1.node[2].app 	dropPk:count 	208
attr interpolationmode  none
attr source  dropPk
attr title  "packets dropped, count"
scalar scenarioPRJP1.node[2].app 	dropPk:sum(packetBytes) 	106496
attr interpolationmode  none
attr source  dropPk
attr title  "packets dropped, sum(packetBytes)"
scalar scenarioPRJP1.node[2].app 	outOfOrderPk:count 	2
attr interpolationmode  none
attr source  outOfOrderPk
attr title  "packets received out of order, count"
scalar scenarioPRJP1.node[2].app 	outOfOrderPk:sum(packetBytes) 	1024
attr interpolationmode  none
attr source  outOfOrderPk
attr title  "packets received out of order, sum(packetBytes)"
scalar scenarioPRJP1.node[2].app 	rcvdPk:count 	1289
attr interpolationmode  none
attr source  rcvdPk
attr title  "packets received, count"
scalar scenarioPRJP1.node[2].app 	rcvdPk:sum(packetBytes) 	659968
attr interpolationmode  none
attr source  rcvdPk
attr title  "packets received, sum(packetBytes)"
statistic scenarioPRJP1.node[2].app 	endToEndDelay:histogram
field count 1289
field mean 4.7094081398349
field stddev 5.8916231934386
field sum 6070.4270922472
field sqrsum 73296.175083764
field min 0.000891037023
field max 19.947335456066
attr interpolationmode  none
attr source  messageAge(rcvdPk)
attr title  "delay, histogram"
attr unit  s
bin	-INF	0
bin	-9.959364204033	0
bin	-8.6313301184253	0
bin	-7.3032960328175	0
bin	-5.9752619472098	0
bin	-4.6472278616021	0
bin	-3.3191937759943	0
bin	-1.9911596903866	0
bin	-0.66312560477887	586
bin	0.66490848082887	78
bin	1.9929425664366	75
bin	3.3209766520443	64
bin	4.6490107376521	67
bin	5.9770448232598	48
bin	7.3050789088675	57
bin	8.6331129944753	50
bin	9.961147080083	33
bin	11.289181165691	50
bin	12.617215251298	35
bin	13.945249336906	35
bin	15.273283422514	33
bin	16.601317508122	30
bin	17.929351593729	31
bin	19.257385679337	17
bin	20.585419764945	0
bin	21.913453850553	0
bin	23.24148793616	0
bin	24.569522021768	0
bin	25.897556107376	0
bin	27.225590192984	0
bin	28.553624278591	0
bin	29.881658364199	0
scalar scenarioPRJP1.node[2].app 	sentPk:count 	5013
attr interpolationmode  none
attr source  sentPk
attr title  "packets sent, count"
scalar scenarioPRJP1.node[2].app 	sentPk:sum(packetBytes) 	2566656
attr interpolationmode  none
attr source  sentPk
attr title  "packets sent, sum(packetBytes)"
scalar scenarioPRJP1.node[2].udp 	droppedPkBadChecksum:count 	0
attr interpolationmode  none
attr title  "packets dropped (checksum error), count"
scalar scenarioPRJP1.node[2].udp 	droppedPkWrongPort:count 	15
attr interpolationmode  none
attr title  "packets dropped (wrong port), count"
scalar scenarioPRJP1.node[2].udp 	passedUpPk:count 	1499
attr interpolationmode  none
attr title  "packets passed up, count"
scalar scenarioPRJP1.node[2].udp 	rcvdPk:count 	1514
attr interpolationmode  none
attr source  rcvdPk
attr title  "packets received, count"
scalar scenarioPRJP1.node[2].udp 	rcvdPk:sum(packetBytes) 	787280
attr interpolationmode  none
attr source  rcvdPk
attr title  "packets received, sum(packetBytes)"
scalar scenarioPRJP1.node[2].udp 	sentPk:count 	5013
attr interpolationmode  none
attr source  sentPk
attr title  "packets sent, count"
scalar scenarioPRJP1.node[2].udp 	sentPk:sum(packetBytes) 	2606760
attr interpolationmode  none
attr source  sentPk
attr title  "packets sent, sum(packetBytes)"
scalar scenarioPRJP1.node[2].networkLayer.arp 	failedARPResolution:count 	15
attr title  "ARP failed resolutions, count"
scalar scenarioPRJP1.node[2].networkLayer.arp 	completedARPResolution:count 	635
attr title  "ARP completed resolutions, count"
scalar scenarioPRJP1.node[2].networkLayer.arp 	initiatedARPResolution:count 	107
attr title  "ARP initiated resolutions, count"
scalar scenarioPRJP1.node[2].networkLayer.arp 	sentReply:count 	79
attr title  "ARP replies sent, count"
scalar scenarioPRJP1.node[2].networkLayer.arp 	sentReq:count 	181
attr title  "ARP request sent, count"
scalar scenarioPRJP1.node[2].mobility 	startTime 	0.1
scalar scenarioPRJP1.node[2].mobility 	totalTime 	1899.9
scalar scenarioPRJP1.node[2].mobility 	stopTime 	1900
scalar scenarioPRJP1.node[2].mobility 	minSpeed 	2.4758978509171e-13
scalar scenarioPRJP1.node[2].mobility 	maxSpeed 	19.981905947127
scalar scenarioPRJP1.node[2].mobility 	totalDistance 	21239.513125813
scalar scenarioPRJP1.node[2].mobility 	totalCO2Emission 	5763.1213009517
scalar scenarioPRJP1.node[2].wlan.mgmt 	dataQueueLen:max 	28
attr interpolationmode  sample-hold
attr title  "data queue length, max"
scalar scenarioPRJP1.node[2].wlan.mgmt 	dataQueueLen:timeavg 	0
attr interpolationmode  sample-hold
attr title  "data queue length, timeavg"
scalar scenarioPRJP1.node[2].wlan.mgmt 	dropPkByQueue:count 	0
attr interpolationmode  none
attr source  dropPkByQueue
attr title  "packets dropped by queue, count"
scalar scenarioPRJP1.node[2].wlan.mgmt 	dropPkByQueue:sum(packetBytes) 	0
attr interpolationmode  none
attr source  dropPkByQueue
attr title  "packets dropped by queue, sum(packetBytes)"
scalar scenarioPRJP1.node[2].wlan.mac 	"number of received packets" 	5819
scalar scenarioPRJP1.node[2].wlan.mac 	"number of collisions" 	51419
scalar scenarioPRJP1.node[2].wlan.mac 	"number of internal collisions" 	0
scalar scenarioPRJP1.node[2].wlan.mac 	"number of retry for AC 0" 	11987
scalar scenarioPRJP1.node[2].wlan.mac 	"number of retry for AC 1" 	39
scalar scenarioPRJP1.node[2].wlan.mac 	"number of retry for AC 2" 	0
scalar scenarioPRJP1.node[2].wlan.mac 	"number of retry for AC 3" 	0
scalar scenarioPRJP1.node[2].wlan.mac 	"sent and received bits" 	54426368
scalar scenarioPRJP1.node[2].wlan.mac 	"sent packet within AC 0" 	5631
scalar scenarioPRJP1.node[2].wlan.mac 	"sent packet within AC 1" 	19
scalar scenarioPRJP1.node[2].wlan.mac 	"sent packet within AC 2" 	0
scalar scenarioPRJP1.node[2].wlan.mac 	"sent packet within AC 3" 	0
scalar scenarioPRJP1.node[2].wlan.mac 	"sent in TXOP " 	0
scalar scenarioPRJP1.node[2].wlan.mac 	"sentWithoutRetry AC 0" 	3855
scalar scenarioPRJP1.node[2].wlan.mac 	"sentWithoutRetry AC 1" 	14
scalar scenarioPRJP1.node[2].wlan.mac 	"sentWithoutRetry AC 2" 	0
scalar scenarioPRJP1.node[2].wlan.mac 	"sentWithoutRetry AC 3" 	0
scalar scenarioPRJP1.node[2].wlan.mac 	"numGivenUp AC 0" 	1163
scalar scenarioPRJP1.node[2].wlan.mac 	"numGivenUp AC 1" 	4
scalar scenarioPRJP1.node[2].wlan.mac 	"numGivenUp AC 2" 	0
scalar scenarioPRJP1.node[2].wlan.mac 	"numGivenUp AC 3" 	0
scalar scenarioPRJP1.node[2].wlan.mac 	"numDropped AC 0" 	0
scalar scenarioPRJP1.node[2].wlan.mac 	"numDropped AC 1" 	0
scalar scenarioPRJP1.node[2].wlan.mac 	"numDropped AC 2" 	0
scalar scenarioPRJP1.node[2].wlan.mac 	"numDropped AC 3" 	0
scalar scenarioPRJP1.node[2].wlan.mac 	rcvdPkFromLL:count 	200491
attr interpolationmode  none
attr source  packetReceivedFromLower
attr title  "packets received from lower layer, count"
scalar scenarioPRJP1.node[2].wlan.mac 	rcvdPkFromLL:sum(packetBytes) 	61984809
attr interpolationmode  none
attr source  packetReceivedFromLower
attr title  "packets received from lower layer, sum(packetBytes)"
scalar scenarioPRJP1.node[2].wlan.mac 	sentDownPk:count 	48771
attr interpolationmode  none
attr source  packetSentToLower
attr title  "packets sent to lower layer, count"
scalar scenarioPRJP1.node[2].wlan.mac 	sentDownPk:sum(packetBytes) 	14300489
attr interpolationmode  none
attr source  packetSentToLower
attr title  "packets sent to lower layer, sum(packetBytes)"
scalar scenarioPRJP1.node[2].wlan.mac 	rcvdPkFromHL:count 	30926
attr interpolationmode  none
attr source  packetReceivedFromUpper
attr title  "packets received from higher layer, count"
scalar scenarioPRJP1.node[2].wlan.mac 	rcvdPkFromHL:sum(packetBytes) 	7463305
attr interpolationmode  none
attr source  packetReceivedFromUpper
attr title  "packets received from higher layer, sum(packetBytes)"
scalar scenarioPRJP1.node[2].wlan.mac 	passedUpPk:count 	74092
attr interpolationmode  none
attr source  packetSentToUpper
attr title  "packets passed to higher layer, count"
scalar scenarioPRJP1.node[2].wlan.mac 	passedUpPk:sum(packetBytes) 	13612482
attr interpolationmode  none
attr source  packetSentToUpper
attr title  "packets passed to higher layer, sum(packetBytes)"
statistic scenarioPRJP1.node[2].wlan.radio 	radioChannel:histogram
field count 1
field mean 3
field stddev -nan
field sum 3
field sqrsum 9
field min 3
field max 3
attr interpolationmode  sample-hold
attr source  radioChannelChanged
attr title  "Radio channel, histogram"
bin	-INF	0
bin	2	0
bin	3	1
bin	4	0
scalar scenarioPRJP1.node[2].wlan.radio 	transmissionState:count 	195084
attr interpolationmode  sample-hold
attr source  transmissionStateChanged
attr title  "Radio transmission state, count"
scalar scenarioPRJP1.node[2].wlan.radio 	receptionState:count 	875495
attr interpolationmode  sample-hold
attr source  receptionStateChanged
attr title  "Radio reception state, count"
scalar scenarioPRJP1.node[2].wlan.radio 	radioMode:count 	97544
attr interpolationmode  sample-hold
attr source  radioModeChanged
attr title  "Radio mode, count"
statistic scenarioPRJP1.node[2].wlan.radio 	symbolErrorRate:histogram
field count 0
field mean -nan
field stddev -nan
field sum 0
field sqrsum 0
field min -nan
field max -nan
attr source  symbolErrorRate
attr title  "Symbol error rate, histogram"
bin	-INF	0
bin	-0.5	0
bin	-0.46666666666667	0
bin	-0.43333333333333	0
bin	-0.4	0
bin	-0.36666666666667	0
bin	-0.33333333333333	0
bin	-0.3	0
bin	-0.26666666666667	0
bin	-0.23333333333333	0
bin	-0.2	0
bin	-0.16666666666667	0
bin	-0.13333333333333	0
bin	-0.1	0
bin	-0.066666666666667	0
bin	-0.033333333333333	0
bin	0	0
bin	0.033333333333333	0
bin	0.066666666666667	0
bin	0.1	0
bin	0.13333333333333	0
bin	0.16666666666667	0
bin	0.2	0
bin	0.23333333333333	0
bin	0.26666666666667	0
bin	0.3	0
bin	0.33333333333333	0
bin	0.36666666666667	0
bin	0.4	0
bin	0.43333333333333	0
bin	0.46666666666667	0
bin	0.5	0
statistic scenarioPRJP1.node[2].wlan.radio 	bitErrorRate:histogram
field count 0
field mean -nan
field stddev -nan
field sum 0
field sqrsum 0
field min -nan
field max -nan
attr source  bitErrorRate
attr title  "Bit error rate, histogram"
bin	-INF	0
bin	-0.5	0
bin	-0.46666666666667	0
bin	-0.43333333333333	0
bin	-0.4	0
bin	-0.36666666666667	0
bin	-0.33333333333333	0
bin	-0.3	0
bin	-0.26666666666667	0
bin	-0.23333333333333	0
bin	-0.2	0
bin	-0.16666666666667	0
bin	-0.13333333333333	0
bin	-0.1	0
bin	-0.066666666666667	0
bin	-0.033333333333333	0
bin	0	0
bin	0.033333333333333	0
bin	0.066666666666667	0
bin	0.1	0
bin	0.13333333333333	0
bin	0.16666666666667	0
bin	0.2	0
bin	0.23333333333333	0
bin	0.26666666666667	0
bin	0.3	0
bin	0.33333333333333	0
bin	0.36666666666667	0
bin	0.4	0
bin	0.43333333333333	0
bin	0.46666666666667	0
bin	0.5	0
statistic scenarioPRJP1.node[2].wlan.radio 	packetErrorRate:histogram
field count 200491
field mean 0.22970218336914
field stddev 0.40959227274479
field sum 46053.220445862
field sqrsum 44213.89652269
field min 0
field max 1
attr source  packetErrorRate
attr title  "Packet error rate, histogram"
bin	-INF	0
bin	-0.00079530767679004	0
bin	-0.00068926665321803	0
bin	-0.00058322562964603	0
bin	-0.00047718460607402	0
bin	-0.00037114358250202	0
bin	-0.00026510255893001	0
bin	-0.00015906153535801	0
bin	-5.3020511786002e-05	131210
bin	5.3020511786002e-05	2409
bin	0.00015906153535801	1160
bin	0.00026510255893001	825
bin	0.00037114358250202	575
bin	0.00047718460607402	446
bin	0.00058322562964603	412
bin	0.00068926665321803	336
bin	0.00079530767679004	281
bin	0.00090134870036204	265
bin	0.001007389723934	251
bin	0.0011134307475061	219
bin	0.0012194717710781	212
bin	0.0013255127946501	182
bin	0.0014315538182221	146
bin	0.0015375948417941	175
bin	0.0016436358653661	129
bin	0.0017496768889381	164
bin	0.0018557179125101	140
bin	0.0019617589360821	144
bin	0.0020677999596541	112
bin	0.0021738409832261	121
bin	0.0022798820067981	100
bin	0.0023859230303701	60477
statistic scenarioPRJP1.node[2].wlan.radio 	minSNIR:histogram
field count 200491
field mean 7180.1604684166
field stddev 184759.36892454
field sum 1439557552.4733
field sqrsum 6.8542677872676e+15
field min 0.00011522772494871
field max 65998999.081095
attr source  minSNIR
attr title  "Min SNIR, histogram"
bin	-INF	0
bin	-305685.78809997	0
bin	-264927.2163122	0
bin	-224168.64452442	0
bin	-183410.07273665	0
bin	-142651.50094887	0
bin	-101892.9291611	0
bin	-61134.357373323	0
bin	-20375.785585548	196471
bin	20382.786202227	2084
bin	61141.357990002	641
bin	101899.92977778	252
bin	142658.50156555	133
bin	183417.07335333	100
bin	224175.6451411	64
bin	264934.21692888	39
bin	305692.78871665	45
bin	346451.36050443	21
bin	387209.9322922	31
bin	427968.50407998	26
bin	468727.07586775	30
bin	509485.64765553	8
bin	550244.2194433	69
bin	591002.79123108	23
bin	631761.36301885	9
bin	672519.93480663	123
bin	713278.5065944	17
bin	754037.07838218	3
bin	794795.65016995	3
bin	835554.22195773	2
bin	876312.7937455	3
bin	917071.36553328	294
scalar scenarioPRJP1.node[2].lo0.lo 	droppedPkBitError:count 	0
attr interpolationmode  none
attr source  dropPkBitError
attr title  "packets dropped/bit error, count"
scalar scenarioPRJP1.node[2].lo0.lo 	droppedPkBitError:sum(packetBytes) 	0
attr interpolationmode  none
attr source  dropPkBitError
attr title  "packets dropped/bit error, sum(packetBytes)"
scalar scenarioPRJP1.node[2].lo0.lo 	rcvdPkFromHL:count 	0
attr interpolationmode  none
attr source  packetReceivedFromUpper
attr title  "packets received from higher layer, count"
scalar scenarioPRJP1.node[2].lo0.lo 	rcvdPkFromHL:sum(packetBytes) 	0
attr interpolationmode  none
attr source  packetReceivedFromUpper
attr title  "packets received from higher layer, sum(packetBytes)"
scalar scenarioPRJP1.node[2].lo0.lo 	passedUpPk:count 	0
attr interpolationmode  none
attr source  packetSentToUpper
attr title  "packets passed to higher layer, count"
scalar scenarioPRJP1.node[2].lo0.lo 	passedUpPk:sum(packetBytes) 	0
attr interpolationmode  none
attr source  packetSentToUpper
attr title  "packets passed to higher layer, sum(packetBytes)"
scalar scenarioPRJP1.node[38].app 	"Total sent" 	5021
scalar scenarioPRJP1.node[38].app 	"Total received" 	1212
scalar scenarioPRJP1.node[38].app 	"Total deleted" 	209
scalar scenarioPRJP1.node[38].app 	dropPk:count 	209
attr interpolationmode  none
attr source  dropPk
attr title  "packets dropped, count"
scalar scenarioPRJP1.node[38].app 	dropPk:sum(packetBytes) 	107008
attr interpolationmode  none
attr source  dropPk
attr title  "packets dropped, sum(packetBytes)"
scalar scenarioPRJP1.node[38].app 	outOfOrderPk:count 	1
attr interpolationmode  none
attr source  outOfOrderPk
attr title  "packets received out of order, count"
scalar scenarioPRJP1.node[38].app 	outOfOrderPk:sum(packetBytes) 	512
attr interpolationmode  none
attr source  outOfOrderPk
attr title  "packets received out of order, sum(packetBytes)"
scalar scenarioPRJP1.node[38].app 	rcvdPk:count 	1212
attr interpolationmode  none
attr source  rcvdPk
attr title  "packets received, count"
scalar scenarioPRJP1.node[38].app 	rcvdPk:sum(packetBytes) 	620544
attr interpolationmode  none
attr source  rcvdPk
attr title  "packets received, sum(packetBytes)"
statistic scenarioPRJP1.node[38].app 	endToEndDelay:histogram
field count 1212
field mean 4.465671172034
field stddev 5.8500827011786
field sum 5412.3934605052
field sqrsum 65614.588724755
field min 0.000890411711
field max 19.95999032073
attr interpolationmode  none
attr source  messageAge(rcvdPk)
attr title  "delay, histogram"
attr unit  s
bin	-INF	0
bin	-9.809557131388	0
bin	-8.5014961651217	0
bin	-7.1934351988555	0
bin	-5.8853742325892	0
bin	-4.5773132663229	0
bin	-3.2692523000567	0
bin	-1.9611913337904	0
bin	-0.65313036752413	572
bin	0.65493059874213	104
bin	1.9629915650084	48
bin	3.2710525312747	62
bin	4.5791134975409	45
bin	5.8871744638072	45
bin	7.1952354300735	48
bin	8.5032963963397	41
bin	9.811357362606	41
bin	11.119418328872	30
bin	12.427479295139	30
bin	13.735540261405	30
bin	15.043601227671	39
bin	16.351662193937	33
bin	17.659723160204	24
bin	18.96778412647	20
bin	20.275845092736	0
bin	21.583906059002	0
bin	22.891967025269	0
bin	24.200027991535	0
bin	25.508088957801	0
bin	26.816149924067	0
bin	28.124210890334	0
bin	29.4322718566	0
scalar scenarioPRJP1.node[38].app 	sentPk:count 	5021
attr interpolationmode  none
attr source  sentPk
attr title  "packets sent, count"
scalar scenarioPRJP1.node[38].app 	sentPk:sum(packetBytes) 	2570752
attr interpolationmode  none
attr source  sentPk
attr title  "packets sent, sum(packetBytes)"
scalar scenarioPRJP1.node[38].udp 	droppedPkBadChecksum:count 	0
attr interpolationmode  none
attr title  "packets dropped (checksum error), count"
scalar scenarioPRJP1.node[38].udp 	droppedPkWrongPort:count 	0
attr interpolationmode  none
attr title  "packets dropped (wrong port), count"
scalar scenarioPRJP1.node[38].udp 	passedUpPk:count 	1422
attr interpolationmode  none
attr title  "packets passed up, count"
scalar scenarioPRJP1.node[38].udp 	rcvdPk:count 	1422
attr interpolationmode  none
attr source  rcvdPk
attr title  "packets received, count"
scalar scenarioPRJP1.node[38].udp 	rcvdPk:sum(packetBytes) 	739440
attr interpolationmode  none
attr source  rcvdPk
attr title  "packets received, sum(packetBytes)"
scalar scenarioPRJP1.node[38].udp 	sentPk:count 	5021
attr interpolationmode  none
attr source  sentPk
attr title  "packets sent, count"
scalar scenarioPRJP1.node[38].udp 	sentPk:sum(packetBytes) 	2610920
attr interpolationmode  none
attr source  sentPk
attr title  "packets sent, sum(packetBytes)"
scalar scenarioPRJP1.node[38].networkLayer.arp 	failedARPResolution:count 	10
attr title  "ARP failed resolutions, count"
scalar scenarioPRJP1.node[38].networkLayer.arp 	completedARPResolution:count 	618
attr title  "ARP completed resolutions, count"
scalar scenarioPRJP1.node[38].networkLayer.arp 	initiatedARPResolution:count 	119
attr title  "ARP initiated resolutions, count"
scalar scenarioPRJP1.node[38].networkLayer.arp 	sentReply:count 	69
attr title  "ARP replies sent, count"
scalar scenarioPRJP1.node[38].networkLayer.arp 	sentReq:count 	189
attr title  "ARP request sent, count"
scalar scenarioPRJP1.node[38].mobility 	startTime 	2.6
scalar scenarioPRJP1.node[38].mobility 	totalTime 	1897.4
scalar scenarioPRJP1.node[38].mobility 	stopTime 	1900
scalar scenarioPRJP1.node[38].mobility 	minSpeed 	2.4755112418619e-13
scalar scenarioPRJP1.node[38].mobility 	maxSpeed 	17.984756149164
scalar scenarioPRJP1.node[38].mobility 	totalDistance 	21986.741550283
scalar scenarioPRJP1.node[38].mobility 	totalCO2Emission 	5550.7998618933
scalar scenarioPRJP1.node[38].wlan.mgmt 	dataQueueLen:max 	48
attr interpolationmode  sample-hold
attr title  "data queue length, max"
scalar scenarioPRJP1.node[38].wlan.mgmt 	dataQueueLen:timeavg 	0
attr interpolationmode  sample-hold
attr title  "data queue length, timeavg"
scalar scenarioPRJP1.node[38].wlan.mgmt 	dropPkByQueue:count 	0
attr interpolationmode  none
attr source  dropPkByQueue
attr title  "packets dropped by queue, count"
scalar scenarioPRJP1.node[38].wlan.mgmt 	dropPkByQueue:sum(packetBytes) 	0
attr interpolationmode  none
attr source  dropPkByQueue
attr title  "packets dropped by queue, sum(packetBytes)"
scalar scenarioPRJP1.node[38].wlan.mac 	"number of received packets" 	5908
scalar scenarioPRJP1.node[38].wlan.mac 	"number of collisions" 	55470
scalar scenarioPRJP1.node[38].wlan.mac 	"number of internal collisions" 	0
scalar scenarioPRJP1.node[38].wlan.mac 	"number of retry for AC 0" 	12159
scalar scenarioPRJP1.node[38].wlan.mac 	"number of retry for AC 1" 	0
scalar scenarioPRJP1.node[38].wlan.mac 	"number of retry for AC 2" 	0
scalar scenarioPRJP1.node[38].wlan.mac 	"number of retry for AC 3" 	0
scalar scenarioPRJP1.node[38].wlan.mac 	"sent and received bits" 	53004496
scalar scenarioPRJP1.node[38].wlan.mac 	"sent packet within AC 0" 	5634
scalar scenarioPRJP1.node[38].wlan.mac 	"sent packet within AC 1" 	0
scalar scenarioPRJP1.node[38].wlan.mac 	"sent packet within AC 2" 	0
scalar scenarioPRJP1.node[38].wlan.mac 	"sent packet within AC 3" 	0
scalar scenarioPRJP1.node[38].wlan.mac 	"sent in TXOP " 	0
scalar scenarioPRJP1.node[38].wlan.mac 	"sentWithoutRetry AC 0" 	3750
scalar scenarioPRJP1.node[38].wlan.mac 	"sentWithoutRetry AC 1" 	0
scalar scenarioPRJP1.node[38].wlan.mac 	"sentWithoutRetry AC 2" 	0
scalar scenarioPRJP1.node[38].wlan.mac 	"sentWithoutRetry AC 3" 	0
scalar scenarioPRJP1.node[38].wlan.mac 	"numGivenUp AC 0" 	1101
scalar scenarioPRJP1.node[38].wlan.mac 	"numGivenUp AC 1" 	0
scalar scenarioPRJP1.node[38].wlan.mac 	"numGivenUp AC 2" 	0
scalar scenarioPRJP1.node[38].wlan.mac 	"numGivenUp AC 3" 	0
scalar scenarioPRJP1.node[38].wlan.mac 	"numDropped AC 0" 	7
scalar scenarioPRJP1.node[38].wlan.mac 	"numDropped AC 1" 	0
scalar scenarioPRJP1.node[38].wlan.mac 	"numDropped AC 2" 	0
scalar scenarioPRJP1.node[38].wlan.mac 	"numDropped AC 3" 	0
scalar scenarioPRJP1.node[38].wlan.mac 	rcvdPkFromLL:count 	213761
attr interpolationmode  none
attr source  packetReceivedFromLower
attr title  "packets received from lower layer, count"
scalar scenarioPRJP1.node[38].wlan.mac 	rcvdPkFromLL:sum(packetBytes) 	64034608
attr interpolationmode  none
attr source  packetReceivedFromLower
attr title  "packets received from lower layer, sum(packetBytes)"
scalar scenarioPRJP1.node[38].wlan.mac 	sentDownPk:count 	48742
attr interpolationmode  none
attr source  packetSentToLower
attr title  "packets sent to lower layer, count"
scalar scenarioPRJP1.node[38].wlan.mac 	sentDownPk:sum(packetBytes) 	14238073
attr interpolationmode  none
attr source  packetSentToLower
attr title  "packets sent to lower layer, sum(packetBytes)"
scalar scenarioPRJP1.node[38].wlan.mac 	rcvdPkFromHL:count 	30682
attr interpolationmode  none
attr source  packetReceivedFromUpper
[...]
attr interpolationmode  none
attr source  packetSentToUpper
attr title  "packets passed to higher layer, sum(packetBytes)"
statistic scenarioPRJP1.node[19].wlan.radio 	radioChannel:histogram
field count 1
field mean 3
field stddev -nan
field sum 3
field sqrsum 9
field min 3
field max 3
attr interpolationmode  sample-hold
attr source  radioChannelChanged
attr title  "Radio channel, histogram"
bin	-INF	0
bin	2	0
bin	3	1
bin	4	0
scalar scenarioPRJP1.node[19].wlan.radio 	transmissionState:count 	212232
attr interpolationmode  sample-hold
attr source  transmissionStateChanged
attr title  "Radio transmission state, count"
scalar scenarioPRJP1.node[19].wlan.radio 	receptionState:count 	971894
attr interpolationmode  sample-hold
attr source  receptionStateChanged
attr title  "Radio reception state, count"
scalar scenarioPRJP1.node[19].wlan.radio 	radioMode:count 	106118
attr interpolationmode  sample-hold
attr source  radioModeChanged
attr title  "Radio mode, count"
statistic scenarioPRJP1.node[19].wlan.radio 	symbolErrorRate:histogram
field count 0
field mean -nan
field stddev -nan
field sum 0
field sqrsum 0
field min -nan
field max -nan
attr source  symbolErrorRate
attr title  "Symbol error rate, histogram"
bin	-INF	0
bin	-0.5	0
bin	-0.46666666666667	0
bin	-0.43333333333333	0
bin	-0.4	0
bin	-0.36666666666667	0
bin	-0.33333333333333	0
bin	-0.3	0
bin	-0.26666666666667	0
bin	-0.23333333333333	0
bin	-0.2	0
bin	-0.16666666666667	0
bin	-0.13333333333333	0
bin	-0.1	0
bin	-0.066666666666667	0
bin	-0.033333333333333	0
bin	0	0
bin	0.033333333333333	0
bin	0.066666666666667	0
bin	0.1	0
bin	0.13333333333333	0
bin	0.16666666666667	0
bin	0.2	0
bin	0.23333333333333	0
bin	0.26666666666667	0
bin	0.3	0
bin	0.33333333333333	0
bin	0.36666666666667	0
bin	0.4	0
bin	0.43333333333333	0
bin	0.46666666666667	0
bin	0.5	0
statistic scenarioPRJP1.node[19].wlan.radio 	bitErrorRate:histogram
field count 0
field mean -nan
field stddev -nan
field sum 0
field sqrsum 0
field min -nan
field max -nan
attr source  bitErrorRate
attr title  "Bit error rate, histogram"
bin	-INF	0
bin	-0.5	0
bin	-0.46666666666667	0
bin	-0.43333333333333	0
bin	-0.4	0
bin	-0.36666666666667	0
bin	-0.33333333333333	0
bin	-0.3	0
bin	-0.26666666666667	0
bin	-0.23333333333333	0
bin	-0.2	0
bin	-0.16666666666667	0
bin	-0.13333333333333	0
bin	-0.1	0
bin	-0.066666666666667	0
bin	-0.033333333333333	0
bin	0	0
bin	0.033333333333333	0
bin	0.066666666666667	0
bin	0.1	0
bin	0.13333333333333	0
bin	0.16666666666667	0
bin	0.2	0
bin	0.23333333333333	0
bin	0.26666666666667	0
bin	0.3	0
bin	0.33333333333333	0
bin	0.36666666666667	0
bin	0.4	0
bin	0.43333333333333	0
bin	0.46666666666667	0
bin	0.5	0
statistic scenarioPRJP1.node[19].wlan.radio 	packetErrorRate:histogram
field count 242071
field mean 0.25239006842824
field stddev 0.42357584414579
field sum 61096.316254492
field sqrsum 58851.454564891
field min 0
field max 1
attr source  packetErrorRate
attr title  "Packet error rate, histogram"
bin	-INF	0
bin	-0.5	0
bin	-0.43333333333333	0
bin	-0.36666666666667	0
bin	-0.3	0
bin	-0.23333333333333	0
bin	-0.16666666666667	0
bin	-0.1	0
bin	-0.033333333333333	171828
bin	0.033333333333333	3653
bin	0.1	1866
bin	0.16666666666667	1156
bin	0.23333333333333	994
bin	0.3	824
bin	0.36666666666667	693
bin	0.43333333333333	708
bin	0.5	551
bin	0.56666666666667	589
bin	0.63333333333333	599
bin	0.7	629
bin	0.76666666666667	677
bin	0.83333333333333	781
bin	0.9	1221
bin	0.96666666666667	55302
bin	1.0333333333333	0
bin	1.1	0
bin	1.1666666666667	0
bin	1.2333333333333	0
bin	1.3	0
bin	1.3666666666667	0
bin	1.4333333333333	0
bin	1.5	0
statistic scenarioPRJP1.node[19].wlan.radio 	minSNIR:histogram
field count 242071
field mean 7822.2818167962
field stddev 122623.84457804
field sum 1893547581.6737
field sqrsum 3.6547233820276e+15
field min 0.00010626514226872
field max 13094855.775469
attr source  minSNIR
attr title  "Min SNIR, histogram"
bin	-INF	0
bin	-56803.68985087	0
bin	-49229.83763189	0
bin	-41655.98541291	0
bin	-34082.133193931	0
bin	-26508.280974951	0
bin	-18934.428755971	0
bin	-11360.576536991	0
bin	-3786.724318011	228191
bin	3787.1279009689	5858
bin	11360.980119949	2284
bin	18934.832338929	765
bin	26508.684557909	572
bin	34082.536776888	408
bin	41656.388995868	408
bin	49230.241214848	565
bin	56804.093433828	236
bin	64377.945652808	213
bin	71951.797871788	204
bin	79525.650090768	195
bin	87099.502309748	337
bin	94673.354528727	188
bin	102247.20674771	104
bin	109821.05896669	55
bin	117394.91118567	39
bin	124968.76340465	40
bin	132542.61562363	49
bin	140116.46784261	46
bin	147690.32006159	29
bin	155264.17228057	40
bin	162838.02449955	26
bin	170411.87671853	1219
scalar scenarioPRJP1.node[19].lo0.lo 	droppedPkBitError:count 	0
attr interpolationmode  none
attr source  dropPkBitError
attr title  "packets dropped/bit error, count"
scalar scenarioPRJP1.node[19].lo0.lo 	droppedPkBitError:sum(packetBytes) 	0
attr interpolationmode  none
attr source  dropPkBitError
attr title  "packets dropped/bit error, sum(packetBytes)"
scalar scenarioPRJP1.node[19].lo0.lo 	rcvdPkFromHL:count 	0
attr interpolationmode  none
attr source  packetReceivedFromUpper
attr title  "packets received from higher layer, count"
scalar scenarioPRJP1.node[19].lo0.lo 	rcvdPkFromHL:sum(packetBytes) 	0
attr interpolationmode  none
attr source  packetReceivedFromUpper
attr title  "packets received from higher layer, sum(packetBytes)"
scalar scenarioPRJP1.node[19].lo0.lo 	passedUpPk:count 	0
attr interpolationmode  none
attr source  packetSentToUpper
attr title  "packets passed to higher layer, count"
scalar scenarioPRJP1.node[19].lo0.lo 	passedUpPk:sum(packetBytes) 	0
attr interpolationmode  none
attr source  packetSentToUpper
attr title  "packets passed to higher layer, sum(packetBytes)"
scalar scenarioPRJP1.node[37].app 	"Total sent" 	5001
scalar scenarioPRJP1.node[37].app 	"Total received" 	1229
scalar scenarioPRJP1.node[37].app 	"Total deleted" 	210
scalar scenarioPRJP1.node[37].app 	dropPk:count 	210
attr interpolationmode  none
attr source  dropPk
attr title  "packets dropped, count"
scalar scenarioPRJP1.node[37].app 	dropPk:sum(packetBytes) 	107520
attr interpolationmode  none
attr source  dropPk
attr title  "packets dropped, sum(packetBytes)"
scalar scenarioPRJP1.node[37].app 	outOfOrderPk:count 	1
attr interpolationmode  none
attr source  outOfOrderPk
attr title  "packets received out of order, count"
scalar scenarioPRJP1.node[37].app 	outOfOrderPk:sum(packetBytes) 	512
attr interpolationmode  none
attr source  outOfOrderPk
attr title  "packets received out of order, sum(packetBytes)"
scalar scenarioPRJP1.node[37].app 	rcvdPk:count 	1229
attr interpolationmode  none
attr source  rcvdPk
attr title  "packets received, count"
scalar scenarioPRJP1.node[37].app 	rcvdPk:sum(packetBytes) 	629248
attr interpolationmode  none
attr source  rcvdPk
attr title  "packets received, sum(packetBytes)"
statistic scenarioPRJP1.node[37].app 	endToEndDelay:histogram
field count 1229
field mean 4.4012788281742
field stddev 5.8225646889565
field sum 5409.1716798261
field sqrsum 65439.247528476
field min 0.000891072408
field max 19.967938864918
attr interpolationmode  none
attr source  messageAge(rcvdPk)
attr title  "delay, histogram"
attr unit  s
bin	-INF	0
bin	-9.81505538823	0
bin	-8.5062624320425	0
bin	-7.1974694758551	0
bin	-5.8886765196676	0
bin	-4.5798835634801	0
bin	-3.2710906072927	0
bin	-1.9622976511052	0
bin	-0.65350469491773	584
bin	0.65528826126974	85
bin	1.9640812174572	72
bin	3.2728741736447	66
bin	4.5816671298321	49
bin	5.8904600860196	49
bin	7.1992530422071	45
bin	8.5080459983945	34
bin	9.816838954582	35
bin	11.125631910769	33
bin	12.434424866957	32
bin	13.743217823144	40
bin	15.052010779332	28
bin	16.360803735519	26
bin	17.669596691707	27
bin	18.978389647894	24
bin	20.287182604082	0
bin	21.595975560269	0
bin	22.904768516457	0
bin	24.213561472644	0
bin	25.522354428832	0
bin	26.831147385019	0
bin	28.139940341207	0
bin	29.448733297394	0
scalar scenarioPRJP1.node[37].app 	sentPk:count 	5001
attr interpolationmode  none
attr source  sentPk
attr title  "packets sent, count"
scalar scenarioPRJP1.node[37].app 	sentPk:sum(packetBytes) 	2560512
attr interpolationmode  none
attr source  sentPk
attr title  "packets sent, sum(packetBytes)"
scalar scenarioPRJP1.node[37].udp 	droppedPkBadChecksum:count 	0
attr interpolationmode  none
attr title  "packets dropped (checksum error), count"
scalar scenarioPRJP1.node[37].udp 	droppedPkWrongPort:count 	22
attr interpolationmode  none
attr title  "packets dropped (wrong port), count"
scalar scenarioPRJP1.node[37].udp 	passedUpPk:count 	1440
attr interpolationmode  none
attr title  "packets passed up, count"
scalar scenarioPRJP1.node[37].udp 	rcvdPk:count 	1462
attr interpolationmode  none
attr source  rcvdPk
attr title  "packets received, count"
scalar scenarioPRJP1.node[37].udp 	rcvdPk:sum(packetBytes) 	760240
attr interpolationmode  none
attr source  rcvdPk
attr title  "packets received, sum(packetBytes)"
scalar scenarioPRJP1.node[37].udp 	sentPk:count 	5001
attr interpolationmode  none
attr source  sentPk
attr title  "packets sent, count"
scalar scenarioPRJP1.node[37].udp 	sentPk:sum(packetBytes) 	2600520
attr interpolationmode  none
attr source  sentPk
attr title  "packets sent, sum(packetBytes)"
scalar scenarioPRJP1.node[37].networkLayer.arp 	failedARPResolution:count 	8
attr title  "ARP failed resolutions, count"
scalar scenarioPRJP1.node[37].networkLayer.arp 	completedARPResolution:count 	696
attr title  "ARP completed resolutions, count"
scalar scenarioPRJP1.node[37].networkLayer.arp 	initiatedARPResolution:count 	107
attr title  "ARP initiated resolutions, count"
scalar scenarioPRJP1.node[37].networkLayer.arp 	sentReply:count 	84
attr title  "ARP replies sent, count"
scalar scenarioPRJP1.node[37].networkLayer.arp 	sentReq:count 	172
attr title  "ARP request sent, count"
scalar scenarioPRJP1.node[37].mobility 	startTime 	2.5
scalar scenarioPRJP1.node[37].mobility 	totalTime 	1897.5
scalar scenarioPRJP1.node[37].mobility 	stopTime 	1900
scalar scenarioPRJP1.node[37].mobility 	minSpeed 	2.4755584668867e-13
scalar scenarioPRJP1.node[37].mobility 	maxSpeed 	19.316259851244
scalar scenarioPRJP1.node[37].mobility 	totalDistance 	19523.65046635
scalar scenarioPRJP1.node[37].mobility 	totalCO2Emission 	5236.1468233086
scalar scenarioPRJP1.node[37].wlan.mgmt 	dataQueueLen:max 	69
attr interpolationmode  sample-hold
attr title  "data queue length, max"
scalar scenarioPRJP1.node[37].wlan.mgmt 	dataQueueLen:timeavg 	0.00030561185859816
attr interpolationmode  sample-hold
attr title  "data queue length, timeavg"
scalar scenarioPRJP1.node[37].wlan.mgmt 	dropPkByQueue:count 	0
attr interpolationmode  none
attr source  dropPkByQueue
attr title  "packets dropped by queue, count"
scalar scenarioPRJP1.node[37].wlan.mgmt 	dropPkByQueue:sum(packetBytes) 	0
attr interpolationmode  none
attr source  dropPkByQueue
attr title  "packets dropped by queue, sum(packetBytes)"
scalar scenarioPRJP1.node[37].wlan.mac 	"number of received packets" 	6634
scalar scenarioPRJP1.node[37].wlan.mac 	"number of collisions" 	54562
scalar scenarioPRJP1.node[37].wlan.mac 	"number of internal collisions" 	2
scalar scenarioPRJP1.node[37].wlan.mac 	"number of retry for AC 0" 	13233
scalar scenarioPRJP1.node[37].wlan.mac 	"number of retry for AC 1" 	25
scalar scenarioPRJP1.node[37].wlan.mac 	"number of retry for AC 2" 	0
scalar scenarioPRJP1.node[37].wlan.mac 	"number of retry for AC 3" 	0
scalar scenarioPRJP1.node[37].wlan.mac 	"sent and received bits" 	55706880
scalar scenarioPRJP1.node[37].wlan.mac 	"sent packet within AC 0" 	6289
scalar scenarioPRJP1.node[37].wlan.mac 	"sent packet within AC 1" 	45
scalar scenarioPRJP1.node[37].wlan.mac 	"sent packet within AC 2" 	0
scalar scenarioPRJP1.node[37].wlan.mac 	"sent packet within AC 3" 	0
scalar scenarioPRJP1.node[37].wlan.mac 	"sent in TXOP " 	0
scalar scenarioPRJP1.node[37].wlan.mac 	"sentWithoutRetry AC 0" 	4272
scalar scenarioPRJP1.node[37].wlan.mac 	"sentWithoutRetry AC 1" 	37
scalar scenarioPRJP1.node[37].wlan.mac 	"sentWithoutRetry AC 2" 	0
scalar scenarioPRJP1.node[37].wlan.mac 	"sentWithoutRetry AC 3" 	0
scalar scenarioPRJP1.node[37].wlan.mac 	"numGivenUp AC 0" 	1224
scalar scenarioPRJP1.node[37].wlan.mac 	"numGivenUp AC 1" 	2
scalar scenarioPRJP1.node[37].wlan.mac 	"numGivenUp AC 2" 	0
scalar scenarioPRJP1.node[37].wlan.mac 	"numGivenUp AC 3" 	0
scalar scenarioPRJP1.node[37].wlan.mac 	"numDropped AC 0" 	23
scalar scenarioPRJP1.node[37].wlan.mac 	"numDropped AC 1" 	0
scalar scenarioPRJP1.node[37].wlan.mac 	"numDropped AC 2" 	0
scalar scenarioPRJP1.node[37].wlan.mac 	"numDropped AC 3" 	0
scalar scenarioPRJP1.node[37].wlan.mac 	rcvdPkFromLL:count 	210837
attr interpolationmode  none
attr source  packetReceivedFromLower
attr title  "packets received from lower layer, count"
scalar scenarioPRJP1.node[37].wlan.mac 	rcvdPkFromLL:sum(packetBytes) 	63282351
attr interpolationmode  none
attr source  packetReceivedFromLower
attr title  "packets received from lower layer, sum(packetBytes)"
scalar scenarioPRJP1.node[37].wlan.mac 	sentDownPk:count 	51082
attr interpolationmode  none
attr source  packetSentToLower
attr title  "packets sent to lower layer, count"
scalar scenarioPRJP1.node[37].wlan.mac 	sentDownPk:sum(packetBytes) 	15225055
attr interpolationmode  none
attr source  packetSentToLower
attr title  "packets sent to lower layer, sum(packetBytes)"
scalar scenarioPRJP1.node[37].wlan.mac 	rcvdPkFromHL:count 	31215
attr interpolationmode  none
attr source  packetReceivedFromUpper
attr title  "packets received from higher layer, count"
scalar scenarioPRJP1.node[37].wlan.mac 	rcvdPkFromHL:sum(packetBytes) 	7670195
attr interpolationmode  none
attr source  packetReceivedFromUpper
attr title  "packets received from higher layer, sum(packetBytes)"
scalar scenarioPRJP1.node[37].wlan.mac 	passedUpPk:count 	78610
attr interpolationmode  none
attr source  packetSentToUpper
attr title  "packets passed to higher layer, count"
scalar scenarioPRJP1.node[37].wlan.mac 	passedUpPk:sum(packetBytes) 	14101519
attr interpolationmode  none
attr source  packetSentToUpper
attr title  "packets passed to higher layer, sum(packetBytes)"
statistic scenarioPRJP1.node[37].wlan.radio 	radioChannel:histogram
field count 1
field mean 3
field stddev -nan
field sum 3
field sqrsum 9
field min 3
field max 3
attr interpolationmode  sample-hold
attr source  radioChannelChanged
attr title  "Radio channel, histogram"
bin	-INF	0
bin	2	0
bin	3	1
bin	4	0
scalar scenarioPRJP1.node[37].wlan.radio 	transmissionState:count 	204328
attr interpolationmode  sample-hold
attr source  transmissionStateChanged
attr title  "Radio transmission state, count"
scalar scenarioPRJP1.node[37].wlan.radio 	receptionState:count 	884672
attr interpolationmode  sample-hold
attr source  receptionStateChanged
attr title  "Radio reception state, count"
scalar scenarioPRJP1.node[37].wlan.radio 	radioMode:count 	102166
attr interpolationmode  sample-hold
attr source  radioModeChanged
attr title  "Radio mode, count"
statistic scenarioPRJP1.node[37].wlan.radio 	symbolErrorRate:histogram
field count 0
field mean -nan
field stddev -nan
field sum 0
field sqrsum 0
field min -nan
field max -nan
attr source  symbolErrorRate
attr title  "Symbol error rate, histogram"
bin	-INF	0
bin	-0.5	0
bin	-0.46666666666667	0
bin	-0.43333333333333	0
bin	-0.4	0
bin	-0.36666666666667	0
bin	-0.33333333333333	0
bin	-0.3	0
bin	-0.26666666666667	0
bin	-0.23333333333333	0
bin	-0.2	0
bin	-0.16666666666667	0
bin	-0.13333333333333	0
bin	-0.1	0
bin	-0.066666666666667	0
bin	-0.033333333333333	0
bin	0	0
bin	0.033333333333333	0
bin	0.066666666666667	0
bin	0.1	0
bin	0.13333333333333	0
bin	0.16666666666667	0
bin	0.2	0
bin	0.23333333333333	0
bin	0.26666666666667	0
bin	0.3	0
bin	0.33333333333333	0
bin	0.36666666666667	0
bin	0.4	0
bin	0.43333333333333	0
bin	0.46666666666667	0
bin	0.5	0
statistic scenarioPRJP1.node[37].wlan.radio 	bitErrorRate:histogram
field count 0
field mean -nan
field stddev -nan
field sum 0
field sqrsum 0
field min -nan
field max -nan
attr source  bitErrorRate
attr title  "Bit error rate, histogram"
bin	-INF	0
bin	-0.5	0
bin	-0.46666666666667	0
bin	-0.43333333333333	0
bin	-0.4	0
bin	-0.36666666666667	0
bin	-0.33333333333333	0
bin	-0.3	0
bin	-0.26666666666667	0
bin	-0.23333333333333	0
bin	-0.2	0
bin	-0.16666666666667	0
bin	-0.13333333333333	0
bin	-0.1	0
bin	-0.066666666666667	0
bin	-0.033333333333333	0
bin	0	0
bin	0.033333333333333	0
bin	0.066666666666667	0
bin	0.1	0
bin	0.13333333333333	0
bin	0.16666666666667	0
bin	0.2	0
bin	0.23333333333333	0
bin	0.26666666666667	0
bin	0.3	0
bin	0.33333333333333	0
bin	0.36666666666667	0
bin	0.4	0
bin	0.43333333333333	0
bin	0.46666666666667	0
bin	0.5	0
statistic scenarioPRJP1.node[37].wlan.radio 	packetErrorRate:histogram
field count 210837
field mean 0.23136822005978
field stddev 0.41061605987054
field sum 48780.981412744
field sqrsum 46834.488291843
field min 0
field max 1
attr source  packetErrorRate
attr title  "Packet error rate, histogram"
bin	-INF	0
bin	-0.49992016629121	0
bin	-0.43326414411905	0
bin	-0.36660812194689	0
bin	-0.29995209977473	0
bin	-0.23329607760257	0
bin	-0.1666400554304	0
bin	-0.099984033258243	0
bin	-0.033328011086081	154110
bin	0.033328011086081	3226
bin	0.099984033258243	1563
bin	0.1666400554304	1121
bin	0.23329607760257	833
bin	0.29995209977473	660
bin	0.36660812194689	571
bin	0.43326414411905	573
bin	0.49992016629121	530
bin	0.56657618846337	473
bin	0.63323221063554	560
bin	0.6998882328077	554
bin	0.76654425497986	566
bin	0.83320027715202	671
bin	0.89985629932418	1009
bin	0.96651232149634	43817
bin	1.0331683436685	0
bin	1.0998243658407	0
bin	1.1664803880128	0
bin	1.233136410185	0
bin	1.2997924323572	0
bin	1.3664484545293	0
bin	1.4331044767015	0
bin	1.4997604988736	0
statistic scenarioPRJP1.node[37].wlan.radio 	minSNIR:histogram
field count 210837
field mean 5796.897112521
field stddev 98608.594498904
field sum 1222200396.5126
field sqrsum 2.0571814763538e+15
field min 0.00012615404980158
field max 9227399.1294283
attr source  minSNIR
attr title  "Min SNIR, histogram"
bin	-INF	0
bin	-60368.927886975	0
bin	-52319.272567471	0
bin	-44269.617247967	0
bin	-36219.961928463	0
bin	-28170.306608959	0
bin	-20120.651289455	0
bin	-12070.995969951	0
bin	-4021.340650447	199815
bin	4028.314669057	4744
bin	12077.969988561	1537
bin	20127.625308065	940
bin	28177.280627569	581
bin	36226.935947073	391
bin	44276.591266577	347
bin	52326.246586081	286
bin	60375.901905585	222
bin	68425.557225089	148
bin	76475.212544593	215
bin	84524.867864098	384
bin	92574.523183602	124
bin	100624.17850311	46
bin	108673.83382261	39
bin	116723.48914211	50
bin	124773.14446162	37
bin	132822.79978112	53
bin	140872.45510063	10
bin	148922.11042013	28
bin	156971.76573963	14
bin	165021.42105914	8
bin	173071.07637864	16
bin	181120.73169815	802
scalar scenarioPRJP1.node[37].lo0.lo 	droppedPkBitError:count 	0
attr interpolationmode  none
attr source  dropPkBitError
attr title  "packets dropped/bit error, count"
scalar scenarioPRJP1.node[37].lo0.lo 	droppedPkBitError:sum(packetBytes) 	0
attr interpolationmode  none
attr source  dropPkBitError
attr title  "packets dropped/bit error, sum(packetBytes)"
scalar scenarioPRJP1.node[37].lo0.lo 	rcvdPkFromHL:count 	0
attr interpolationmode  none
attr source  packetReceivedFromUpper
attr title  "packets received from higher layer, count"
scalar scenarioPRJP1.node[37].lo0.lo 	rcvdPkFromHL:sum(packetBytes) 	0
attr interpolationmode  none
attr source  packetReceivedFromUpper
attr title  "packets received from higher layer, sum(packetBytes)"
scalar scenarioPRJP1.node[37].lo0.lo 	passedUpPk:count 	0
attr interpolationmode  none
attr source  packetSentToUpper
attr title  "packets passed to higher layer, count"
scalar scenarioPRJP1.node[37].lo0.lo 	passedUpPk:sum(packetBytes) 	0
attr interpolationmode  none
attr source  packetSentToUpper
attr title  "packets passed to higher layer, sum(packetBytes)"
