version 2
run OLSR-ETX-LNS-100n-7-20150820-08:43:16-18370
attr configname OLSR-ETX-LNS-100n
attr datetime 20150820-08:43:16
attr experiment OLSR-ETX-LNS-100n
attr inifile omnetpp.ini
attr iterationvars ""
attr iterationvars2 $repetition=7
attr measurement ""
attr network Prj_Part1_propag.scenarioPRJP1
attr processid 18370
attr repetition 7
attr replication #7
attr resultdir results
attr runnumber 7
attr seedset 7

scalar scenarioPRJP1.radioMedium.propagation 	"Arrival computation count" 	154904989
scalar scenarioPRJP1.radioMedium 	"transmission count" 	1564897
scalar scenarioPRJP1.radioMedium 	"radio frame send count" 	154904921
scalar scenarioPRJP1.radioMedium 	"reception computation count" 	153461545
scalar scenarioPRJP1.radioMedium 	"interference computation count" 	370382571
scalar scenarioPRJP1.radioMedium 	"reception decision computation count" 	11769404
scalar scenarioPRJP1.radioMedium 	"listening decision computation count" 	209764695
scalar scenarioPRJP1.radioMedium 	"reception cache hit" 	91.688985018481
attr unit  %
scalar scenarioPRJP1.radioMedium 	"interference cache hit" 	50
attr unit  %
scalar scenarioPRJP1.radioMedium 	"noise cache hit" 	0
attr unit  %
scalar scenarioPRJP1.radioMedium 	"snir cache hit" 	0
attr unit  %
scalar scenarioPRJP1.radioMedium 	"reception decision cache hit" 	0
attr unit  %
scalar scenarioPRJP1.node[0].app 	"Total sent" 	2613
scalar scenarioPRJP1.node[0].app 	"Total received" 	159
scalar scenarioPRJP1.node[0].app 	"Total deleted" 	0
scalar scenarioPRJP1.node[0].app 	dropPk:count 	0
attr interpolationmode  none
attr source  dropPk
attr title  "packets dropped, count"
scalar scenarioPRJP1.node[0].app 	dropPk:sum(packetBytes) 	0
attr interpolationmode  none
attr source  dropPk
attr title  "packets dropped, sum(packetBytes)"
scalar scenarioPRJP1.node[0].app 	outOfOrderPk:count 	0
attr interpolationmode  none
attr source  outOfOrderPk
attr title  "packets received out of order, count"
scalar scenarioPRJP1.node[0].app 	outOfOrderPk:sum(packetBytes) 	0
attr interpolationmode  none
attr source  outOfOrderPk
attr title  "packets received out of order, sum(packetBytes)"
scalar scenarioPRJP1.node[0].app 	rcvdPk:count 	159
attr interpolationmode  none
attr source  rcvdPk
attr title  "packets received, count"
scalar scenarioPRJP1.node[0].app 	rcvdPk:sum(packetBytes) 	81408
attr interpolationmode  none
attr source  rcvdPk
attr title  "packets received, sum(packetBytes)"
statistic scenarioPRJP1.node[0].app 	endToEndDelay:histogram
field count 159
field mean 0.34009427639775
field stddev 0.70261281778334
field sum 54.074989947242
field sqrsum 96.389628508046
field min 0.000945048658
field max 3.570068761353
attr interpolationmode  none
attr source  messageAge(rcvdPk)
attr title  "delay, histogram"
attr unit  s
bin	-INF	0
bin	-1.127921320247	0
bin	-0.97740579167247	0
bin	-0.82689026309793	0
bin	-0.6763747345234	0
bin	-0.52585920594887	0
bin	-0.37534367737433	0
bin	-0.2248281487998	0
bin	-0.074312620225267	120
bin	0.076202908349267	6
bin	0.2267184369238	1
bin	0.37723396549833	2
bin	0.52774949407287	1
bin	0.6782650226474	3
bin	0.82878055122193	0
bin	0.97929607979647	5
bin	1.129811608371	1
bin	1.2803271369455	2
bin	1.4308426655201	1
bin	1.5813581940946	1
bin	1.7318737226691	3
bin	1.8823892512437	4
bin	2.0329047798182	3
bin	2.1834203083927	4
bin	2.3339358369673	0
bin	2.4844513655418	1
bin	2.6349668941163	0
bin	2.7854824226909	0
bin	2.9359979512654	0
bin	3.0865134798399	0
bin	3.2370290084145	0
bin	3.387544536989	1
scalar scenarioPRJP1.node[0].app 	sentPk:count 	2613
attr interpolationmode  none
attr source  sentPk
attr title  "packets sent, count"
scalar scenarioPRJP1.node[0].app 	sentPk:sum(packetBytes) 	1337856
attr interpolationmode  none
attr source  sentPk
attr title  "packets sent, sum(packetBytes)"
scalar scenarioPRJP1.node[0].udp 	droppedPkBadChecksum:count 	0
attr interpolationmode  none
attr title  "packets dropped (checksum error), count"
scalar scenarioPRJP1.node[0].udp 	droppedPkWrongPort:count 	0
attr interpolationmode  none
attr title  "packets dropped (wrong port), count"
scalar scenarioPRJP1.node[0].udp 	passedUpPk:count 	159
attr interpolationmode  none
attr title  "packets passed up, count"
scalar scenarioPRJP1.node[0].udp 	rcvdPk:count 	159
attr interpolationmode  none
attr source  rcvdPk
attr title  "packets received, count"
scalar scenarioPRJP1.node[0].udp 	rcvdPk:sum(packetBytes) 	82680
attr interpolationmode  none
attr source  rcvdPk
attr title  "packets received, sum(packetBytes)"
scalar scenarioPRJP1.node[0].udp 	sentPk:count 	2613
attr interpolationmode  none
attr source  sentPk
attr title  "packets sent, count"
scalar scenarioPRJP1.node[0].udp 	sentPk:sum(packetBytes) 	1358760
attr interpolationmode  none
attr source  sentPk
attr title  "packets sent, sum(packetBytes)"
scalar scenarioPRJP1.node[0].networkLayer.arp 	failedARPResolution:count 	158
attr title  "ARP failed resolutions, count"
scalar scenarioPRJP1.node[0].networkLayer.arp 	completedARPResolution:count 	2868
attr title  "ARP completed resolutions, count"
scalar scenarioPRJP1.node[0].networkLayer.arp 	initiatedARPResolution:count 	247
attr title  "ARP initiated resolutions, count"
scalar scenarioPRJP1.node[0].networkLayer.arp 	sentReply:count 	61
attr title  "ARP replies sent, count"
scalar scenarioPRJP1.node[0].networkLayer.arp 	sentReq:count 	633
attr title  "ARP request sent, count"
scalar scenarioPRJP1.node[0].mobility 	startTime 	0.1
scalar scenarioPRJP1.node[0].mobility 	totalTime 	949.9
scalar scenarioPRJP1.node[0].mobility 	stopTime 	950
scalar scenarioPRJP1.node[0].mobility 	minSpeed 	2.4754978782091e-13
scalar scenarioPRJP1.node[0].mobility 	maxSpeed 	18.162028190753
scalar scenarioPRJP1.node[0].mobility 	totalDistance 	9918.5121822767
scalar scenarioPRJP1.node[0].mobility 	totalCO2Emission 	2749.8991608881
scalar scenarioPRJP1.node[0].wlan.mgmt 	dataQueueLen:max 	2
attr interpolationmode  sample-hold
attr title  "data queue length, max"
scalar scenarioPRJP1.node[0].wlan.mgmt 	dataQueueLen:timeavg 	0
attr interpolationmode  sample-hold
attr title  "data queue length, timeavg"
scalar scenarioPRJP1.node[0].wlan.mgmt 	dropPkByQueue:count 	0
attr interpolationmode  none
attr source  dropPkByQueue
attr title  "packets dropped by queue, count"
scalar scenarioPRJP1.node[0].wlan.mgmt 	dropPkByQueue:sum(packetBytes) 	0
attr interpolationmode  none
attr source  dropPkByQueue
attr title  "packets dropped by queue, sum(packetBytes)"
scalar scenarioPRJP1.node[0].wlan.mac 	"number of received packets" 	1164
scalar scenarioPRJP1.node[0].wlan.mac 	"number of collisions" 	56199
scalar scenarioPRJP1.node[0].wlan.mac 	"number of internal collisions" 	0
scalar scenarioPRJP1.node[0].wlan.mac 	"number of retry for AC 0" 	7942
scalar scenarioPRJP1.node[0].wlan.mac 	"number of retry for AC 1" 	24
scalar scenarioPRJP1.node[0].wlan.mac 	"number of retry for AC 2" 	0
scalar scenarioPRJP1.node[0].wlan.mac 	"number of retry for AC 3" 	0
scalar scenarioPRJP1.node[0].wlan.mac 	"sent and received bits" 	42908256
scalar scenarioPRJP1.node[0].wlan.mac 	"sent packet within AC 0" 	718
scalar scenarioPRJP1.node[0].wlan.mac 	"sent packet within AC 1" 	32
scalar scenarioPRJP1.node[0].wlan.mac 	"sent packet within AC 2" 	0
scalar scenarioPRJP1.node[0].wlan.mac 	"sent packet within AC 3" 	0
scalar scenarioPRJP1.node[0].wlan.mac 	"sent in TXOP " 	0
scalar scenarioPRJP1.node[0].wlan.mac 	"sentWithoutRetry AC 0" 	477
scalar scenarioPRJP1.node[0].wlan.mac 	"sentWithoutRetry AC 1" 	24
scalar scenarioPRJP1.node[0].wlan.mac 	"sentWithoutRetry AC 2" 	0
scalar scenarioPRJP1.node[0].wlan.mac 	"sentWithoutRetry AC 3" 	0
scalar scenarioPRJP1.node[0].wlan.mac 	"numGivenUp AC 0" 	1220
scalar scenarioPRJP1.node[0].wlan.mac 	"numGivenUp AC 1" 	2
scalar scenarioPRJP1.node[0].wlan.mac 	"numGivenUp AC 2" 	0
scalar scenarioPRJP1.node[0].wlan.mac 	"numGivenUp AC 3" 	0
scalar scenarioPRJP1.node[0].wlan.mac 	"numDropped AC 0" 	0
scalar scenarioPRJP1.node[0].wlan.mac 	"numDropped AC 1" 	0
scalar scenarioPRJP1.node[0].wlan.mac 	"numDropped AC 2" 	0
scalar scenarioPRJP1.node[0].wlan.mac 	"numDropped AC 3" 	0
scalar scenarioPRJP1.node[0].wlan.mac 	rcvdPkFromLL:count 	128866
attr interpolationmode  none
attr source  packetReceivedFromLower
attr title  "packets received from lower layer, count"
scalar scenarioPRJP1.node[0].wlan.mac 	rcvdPkFromLL:sum(packetBytes) 	83016450
attr interpolationmode  none
attr source  packetReceivedFromLower
attr title  "packets received from lower layer, sum(packetBytes)"
scalar scenarioPRJP1.node[0].wlan.mac 	sentDownPk:count 	16484
attr interpolationmode  none
attr source  packetSentToLower
attr title  "packets sent to lower layer, count"
scalar scenarioPRJP1.node[0].wlan.mac 	sentDownPk:sum(packetBytes) 	10532044
attr interpolationmode  none
attr source  packetSentToLower
attr title  "packets sent to lower layer, sum(packetBytes)"
scalar scenarioPRJP1.node[0].wlan.mac 	rcvdPkFromHL:count 	7354
attr interpolationmode  none
attr source  packetReceivedFromUpper
attr title  "packets received from higher layer, count"
scalar scenarioPRJP1.node[0].wlan.mac 	rcvdPkFromHL:sum(packetBytes) 	6049540
attr interpolationmode  none
attr source  packetReceivedFromUpper
attr title  "packets received from higher layer, sum(packetBytes)"
scalar scenarioPRJP1.node[0].wlan.mac 	passedUpPk:count 	34703
attr interpolationmode  none
attr source  packetSentToUpper
attr title  "packets passed to higher layer, count"
scalar scenarioPRJP1.node[0].wlan.mac 	passedUpPk:sum(packetBytes) 	32346848
attr interpolationmode  none
attr source  packetSentToUpper
attr title  "packets passed to higher layer, sum(packetBytes)"
statistic scenarioPRJP1.node[0].wlan.radio 	radioChannel:histogram
field count 1
field mean 3
field stddev -nan
field sum 3
field sqrsum 9
field min 3
field max 3
attr interpolationmode  sample-hold
attr source  radioChannelChanged
attr title  "Radio channel, histogram"
bin	-INF	0
bin	2	0
bin	3	1
bin	4	0
scalar scenarioPRJP1.node[0].wlan.radio 	transmissionState:count 	65936
attr interpolationmode  sample-hold
attr source  transmissionStateChanged
attr title  "Radio transmission state, count"
scalar scenarioPRJP1.node[0].wlan.radio 	receptionState:count 	333553
attr interpolationmode  sample-hold
attr source  receptionStateChanged
attr title  "Radio reception state, count"
scalar scenarioPRJP1.node[0].wlan.radio 	radioMode:count 	32970
attr interpolationmode  sample-hold
attr source  radioModeChanged
attr title  "Radio mode, count"
statistic scenarioPRJP1.node[0].wlan.radio 	symbolErrorRate:histogram
field count 0
field mean -nan
field stddev -nan
field sum 0
field sqrsum 0
field min -nan
field max -nan
attr source  symbolErrorRate
attr title  "Symbol error rate, histogram"
bin	-INF	0
bin	-0.5	0
bin	-0.46666666666667	0
bin	-0.43333333333333	0
bin	-0.4	0
bin	-0.36666666666667	0
bin	-0.33333333333333	0
bin	-0.3	0
bin	-0.26666666666667	0
bin	-0.23333333333333	0
bin	-0.2	0
bin	-0.16666666666667	0
bin	-0.13333333333333	0
bin	-0.1	0
bin	-0.066666666666667	0
bin	-0.033333333333333	0
bin	-6.9388939039072e-18	0
bin	0.033333333333333	0
bin	0.066666666666667	0
bin	0.1	0
bin	0.13333333333333	0
bin	0.16666666666667	0
bin	0.2	0
bin	0.23333333333333	0
bin	0.26666666666667	0
bin	0.3	0
bin	0.33333333333333	0
bin	0.36666666666667	0
bin	0.4	0
bin	0.43333333333333	0
bin	0.46666666666667	0
bin	0.5	0
statistic scenarioPRJP1.node[0].wlan.radio 	bitErrorRate:histogram
field count 0
field mean -nan
field stddev -nan
field sum 0
field sqrsum 0
field min -nan
field max -nan
attr source  bitErrorRate
attr title  "Bit error rate, histogram"
bin	-INF	0
bin	-0.5	0
bin	-0.46666666666667	0
bin	-0.43333333333333	0
bin	-0.4	0
bin	-0.36666666666667	0
bin	-0.33333333333333	0
bin	-0.3	0
bin	-0.26666666666667	0
bin	-0.23333333333333	0
bin	-0.2	0
bin	-0.16666666666667	0
bin	-0.13333333333333	0
bin	-0.1	0
bin	-0.066666666666667	0
bin	-0.033333333333333	0
bin	-6.9388939039072e-18	0
bin	0.033333333333333	0
bin	0.066666666666667	0
bin	0.1	0
bin	0.13333333333333	0
bin	0.16666666666667	0
bin	0.2	0
bin	0.23333333333333	0
bin	0.26666666666667	0
bin	0.3	0
bin	0.33333333333333	0
bin	0.36666666666667	0
bin	0.4	0
bin	0.43333333333333	0
bin	0.46666666666667	0
bin	0.5	0
statistic scenarioPRJP1.node[0].wlan.radio 	packetErrorRate:histogram
field count 128866
field mean 0.41699256670918
field stddev 0.48472435991794
field sum 53736.164101545
field sqrsum 52685.405661244
field min 0
field max 1
attr source  packetErrorRate
attr title  "Packet error rate, histogram"
bin	-INF	0
bin	-0.5	0
bin	-0.43333333333333	0
bin	-0.36666666666667	0
bin	-0.3	0
bin	-0.23333333333333	0
bin	-0.16666666666667	0
bin	-0.1	0
bin	-0.033333333333333	70924
bin	0.033333333333333	1659
bin	0.1	801
bin	0.16666666666667	582
bin	0.23333333333333	437
bin	0.3	418
bin	0.36666666666667	314
bin	0.43333333333333	290
bin	0.5	302
bin	0.56666666666667	282
bin	0.63333333333333	291
bin	0.7	297
bin	0.76666666666667	304
bin	0.83333333333333	383
bin	0.9	578
bin	0.96666666666667	51004
bin	1.0333333333333	0
bin	1.1	0
bin	1.1666666666667	0
bin	1.2333333333333	0
bin	1.3	0
bin	1.3666666666667	0
bin	1.4333333333333	0
bin	1.5	0
statistic scenarioPRJP1.node[0].wlan.radio 	minSNIR:histogram
field count 128866
field mean 663.80174924333
field stddev 12085.646689679
field sum 85541476.217991
field sqrsum 18879172508099
field min 0.00013994282786709
field max 2134625.8814127
attr source  minSNIR
attr title  "Min SNIR, histogram"
bin	-INF	0
bin	-5270.8865841012	0
bin	-4568.0615563943	0
bin	-3865.2365286875	0
bin	-3162.4115009806	0
bin	-2459.5864732738	0
bin	-1756.7614455669	0
bin	-1053.93641786	0
bin	-351.11139015317	118069
bin	351.71363755369	5481
bin	1054.5386652606	1583
bin	1757.3636929674	812
bin	2460.1887206743	474
bin	3163.0137483811	323
bin	3865.838776088	232
bin	4568.6638037949	208
bin	5271.4888315017	125
bin	5974.3138592086	117
bin	6677.1388869155	91
bin	7379.9639146223	68
bin	8082.7889423292	67
bin	8785.613970036	64
bin	9488.4389977429	58
bin	10191.26402545	55
bin	10894.089053157	50
bin	11596.914080863	45
bin	12299.73910857	44
bin	13002.564136277	32
bin	13705.389163984	34
bin	14408.214191691	32
bin	15111.039219398	23
bin	15813.864247105	779
scalar scenarioPRJP1.node[0].lo0.lo 	droppedPkBitError:count 	0
attr interpolationmode  none
attr source  dropPkBitError
attr title  "packets dropped/bit error, count"
scalar scenarioPRJP1.node[0].lo0.lo 	droppedPkBitError:sum(packetBytes) 	0
attr interpolationmode  none
attr source  dropPkBitError
attr title  "packets dropped/bit error, sum(packetBytes)"
scalar scenarioPRJP1.node[0].lo0.lo 	rcvdPkFromHL:count 	4
attr interpolationmode  none
attr source  packetReceivedFromUpper
attr title  "packets received from higher layer, count"
scalar scenarioPRJP1.node[0].lo0.lo 	rcvdPkFromHL:sum(packetBytes) 	224
attr interpolationmode  none
attr source  packetReceivedFromUpper
attr title  "packets received from higher layer, sum(packetBytes)"
scalar scenarioPRJP1.node[0].lo0.lo 	passedUpPk:count 	4
attr interpolationmode  none
attr source  packetSentToUpper
attr title  "packets passed to higher layer, count"
scalar scenarioPRJP1.node[0].lo0.lo 	passedUpPk:sum(packetBytes) 	224
attr interpolationmode  none
attr source  packetSentToUpper
attr title  "packets passed to higher layer, sum(packetBytes)"
scalar scenarioPRJP1.node[20].app 	"Total sent" 	2608
scalar scenarioPRJP1.node[20].app 	"Total received" 	141
scalar scenarioPRJP1.node[20].app 	"Total deleted" 	0
scalar scenarioPRJP1.node[20].app 	dropPk:count 	0
attr interpolationmode  none
attr source  dropPk
attr title  "packets dropped, count"
scalar scenarioPRJP1.node[20].app 	dropPk:sum(packetBytes) 	0
attr interpolationmode  none
attr source  dropPk
attr title  "packets dropped, sum(packetBytes)"
scalar scenarioPRJP1.node[20].app 	outOfOrderPk:count 	0
attr interpolationmode  none
attr source  outOfOrderPk
attr title  "packets received out of order, count"
scalar scenarioPRJP1.node[20].app 	outOfOrderPk:sum(packetBytes) 	0
attr interpolationmode  none
attr source  outOfOrderPk
attr title  "packets received out of order, sum(packetBytes)"
scalar scenarioPRJP1.node[20].app 	rcvdPk:count 	141
attr interpolationmode  none
attr source  rcvdPk
attr title  "packets received, count"
scalar scenarioPRJP1.node[20].app 	rcvdPk:sum(packetBytes) 	72192
attr interpolationmode  none
attr source  rcvdPk
attr title  "packets received, sum(packetBytes)"
statistic scenarioPRJP1.node[20].app 	endToEndDelay:histogram
field count 141
field mean 0.18789014132555
field stddev 0.46570849354317
field sum 26.492509926903
field sqrsum 35.341497568389
field min 0.000945025213
field max 2.086401621775
attr interpolationmode  none
attr source  messageAge(rcvdPk)
attr title  "delay, histogram"
attr unit  s
bin	-INF	0
bin	-1.041783273068	0
bin	-0.9027528332972	0
bin	-0.7637223935264	0
bin	-0.6246919537556	0
bin	-0.4856615139848	0
bin	-0.346631074214	0
bin	-0.2076006344432	0
bin	-0.0685701946724	108
bin	0.0704602450984	15
bin	0.2094906848692	0
bin	0.34852112464	0
bin	0.4875515644108	3
bin	0.6265820041816	0
bin	0.7656124439524	1
bin	0.9046428837232	5
bin	1.043673323494	0
bin	1.1827037632648	2
bin	1.3217342030356	0
bin	1.4607646428064	1
bin	1.5997950825772	1
bin	1.738825522348	1
bin	1.8778559621188	1
bin	2.0168864018896	3
bin	2.1559168416604	0
bin	2.2949472814312	0
bin	2.433977721202	0
bin	2.5730081609728	0
bin	2.7120386007436	0
bin	2.8510690405144	0
bin	2.9900994802852	0
bin	3.129129920056	0
scalar scenarioPRJP1.node[20].app 	sentPk:count 	2608
attr interpolationmode  none
attr source  sentPk
attr title  "packets sent, count"
scalar scenarioPRJP1.node[20].app 	sentPk:sum(packetBytes) 	1335296
attr interpolationmode  none
attr source  sentPk
attr title  "packets sent, sum(packetBytes)"
scalar scenarioPRJP1.node[20].udp 	droppedPkBadChecksum:count 	0
attr interpolationmode  none
attr title  "packets dropped (checksum error), count"
scalar scenarioPRJP1.node[20].udp 	droppedPkWrongPort:count 	0
attr interpolationmode  none
attr title  "packets dropped (wrong port), count"
scalar scenarioPRJP1.node[20].udp 	passedUpPk:count 	141
attr interpolationmode  none
attr title  "packets passed up, count"
scalar scenarioPRJP1.node[20].udp 	rcvdPk:count 	141
attr interpolationmode  none
attr source  rcvdPk
attr title  "packets received, count"
scalar scenarioPRJP1.node[20].udp 	rcvdPk:sum(packetBytes) 	73320
attr interpolationmode  none
attr source  rcvdPk
attr title  "packets received, sum(packetBytes)"
scalar scenarioPRJP1.node[20].udp 	sentPk:count 	2608
attr interpolationmode  none
attr source  sentPk
attr title  "packets sent, count"
scalar scenarioPRJP1.node[20].udp 	sentPk:sum(packetBytes) 	1356160
attr interpolationmode  none
attr source  sentPk
attr title  "packets sent, sum(packetBytes)"
scalar scenarioPRJP1.node[20].networkLayer.arp 	failedARPResolution:count 	202
attr title  "ARP failed resolutions, count"
scalar scenarioPRJP1.node[20].networkLayer.arp 	completedARPResolution:count 	2429
attr title  "ARP completed resolutions, count"
scalar scenarioPRJP1.node[20].networkLayer.arp 	initiatedARPResolution:count 	290
attr title  "ARP initiated resolutions, count"
scalar scenarioPRJP1.node[20].networkLayer.arp 	sentReply:count 	49
attr title  "ARP replies sent, count"
scalar scenarioPRJP1.node[20].networkLayer.arp 	sentReq:count 	756
attr title  "ARP request sent, count"
scalar scenarioPRJP1.node[20].mobility 	startTime 	2.5
scalar scenarioPRJP1.node[20].mobility 	totalTime 	947.5
scalar scenarioPRJP1.node[20].mobility 	stopTime 	950
scalar scenarioPRJP1.node[20].mobility 	minSpeed 	2.4757288802228e-13
scalar scenarioPRJP1.node[20].mobility 	maxSpeed 	17.984680891827
scalar scenarioPRJP1.node[20].mobility 	totalDistance 	8976.2510718458
scalar scenarioPRJP1.node[20].mobility 	totalCO2Emission 	2435.9494196549
scalar scenarioPRJP1.node[20].wlan.mgmt 	dataQueueLen:max 	3
attr interpolationmode  sample-hold
attr title  "data queue length, max"
scalar scenarioPRJP1.node[20].wlan.mgmt 	dataQueueLen:timeavg 	0
attr interpolationmode  sample-hold
attr title  "data queue length, timeavg"
scalar scenarioPRJP1.node[20].wlan.mgmt 	dropPkByQueue:count 	0
attr interpolationmode  none
attr source  dropPkByQueue
attr title  "packets dropped by queue, count"
scalar scenarioPRJP1.node[20].wlan.mgmt 	dropPkByQueue:sum(packetBytes) 	0
attr interpolationmode  none
attr source  dropPkByQueue
attr title  "packets dropped by queue, sum(packetBytes)"
scalar scenarioPRJP1.node[20].wlan.mac 	"number of received packets" 	1313
scalar scenarioPRJP1.node[20].wlan.mac 	"number of collisions" 	48075
scalar scenarioPRJP1.node[20].wlan.mac 	"number of internal collisions" 	0
scalar scenarioPRJP1.node[20].wlan.mac 	"number of retry for AC 0" 	6586
scalar scenarioPRJP1.node[20].wlan.mac 	"number of retry for AC 1" 	33
scalar scenarioPRJP1.node[20].wlan.mac 	"number of retry for AC 2" 	0
scalar scenarioPRJP1.node[20].wlan.mac 	"number of retry for AC 3" 	0
scalar scenarioPRJP1.node[20].wlan.mac 	"sent and received bits" 	41008032
scalar scenarioPRJP1.node[20].wlan.mac 	"sent packet within AC 0" 	863
scalar scenarioPRJP1.node[20].wlan.mac 	"sent packet within AC 1" 	31
scalar scenarioPRJP1.node[20].wlan.mac 	"sent packet within AC 2" 	0
scalar scenarioPRJP1.node[20].wlan.mac 	"sent packet within AC 3" 	0
scalar scenarioPRJP1.node[20].wlan.mac 	"sent in TXOP " 	0
scalar scenarioPRJP1.node[20].wlan.mac 	"sentWithoutRetry AC 0" 	598
scalar scenarioPRJP1.node[20].wlan.mac 	"sentWithoutRetry AC 1" 	28
scalar scenarioPRJP1.node[20].wlan.mac 	"sentWithoutRetry AC 2" 	0
scalar scenarioPRJP1.node[20].wlan.mac 	"sentWithoutRetry AC 3" 	0
scalar scenarioPRJP1.node[20].wlan.mac 	"numGivenUp AC 0" 	988
scalar scenarioPRJP1.node[20].wlan.mac 	"numGivenUp AC 1" 	5
scalar scenarioPRJP1.node[20].wlan.mac 	"numGivenUp AC 2" 	0
scalar scenarioPRJP1.node[20].wlan.mac 	"numGivenUp AC 3" 	0
scalar scenarioPRJP1.node[20].wlan.mac 	"numDropped AC 0" 	0
scalar scenarioPRJP1.node[20].wlan.mac 	"numDropped AC 1" 	0
scalar scenarioPRJP1.node[20].wlan.mac 	"numDropped AC 2" 	0
scalar scenarioPRJP1.node[20].wlan.mac 	"numDropped AC 3" 	0
scalar scenarioPRJP1.node[20].wlan.mac 	rcvdPkFromLL:count 	115536
attr interpolationmode  none
attr source  packetReceivedFromLower
attr title  "packets received from lower layer, count"
scalar scenarioPRJP1.node[20].wlan.mac 	rcvdPkFromLL:sum(packetBytes) 	72654060
attr interpolationmode  none
attr source  packetReceivedFromLower
attr title  "packets received from lower layer, sum(packetBytes)"
scalar scenarioPRJP1.node[20].wlan.mac 	sentDownPk:count 	14996
attr interpolationmode  none
attr source  packetSentToLower
attr title  "packets sent to lower layer, count"
scalar scenarioPRJP1.node[20].wlan.mac 	sentDownPk:sum(packetBytes) 	9402474
attr interpolationmode  none
attr source  packetSentToLower
attr title  "packets sent to lower layer, sum(packetBytes)"
scalar scenarioPRJP1.node[20].wlan.mac 	rcvdPkFromHL:count 	7064
attr interpolationmode  none
attr source  packetReceivedFromUpper
attr title  "packets received from higher layer, count"
scalar scenarioPRJP1.node[20].wlan.mac 	rcvdPkFromHL:sum(packetBytes) 	5682240
attr interpolationmode  none
attr source  packetReceivedFromUpper
attr title  "packets received from higher layer, sum(packetBytes)"
scalar scenarioPRJP1.node[20].wlan.mac 	passedUpPk:count 	30108
attr interpolationmode  none
attr source  packetSentToUpper
attr title  "packets passed to higher layer, count"
scalar scenarioPRJP1.node[20].wlan.mac 	passedUpPk:sum(packetBytes) 	27880896
attr interpolationmode  none
attr source  packetSentToUpper
attr title  "packets passed to higher layer, sum(packetBytes)"
statistic scenarioPRJP1.node[20].wlan.radio 	radioChannel:histogram
field count 1
field mean 3
field stddev -nan
field sum 3
field sqrsum 9
field min 3
field max 3
attr interpolationmode  sample-hold
attr source  radioChannelChanged
attr title  "Radio channel, histogram"
bin	-INF	0
bin	2	0
bin	3	1
bin	4	0
scalar scenarioPRJP1.node[20].wlan.radio 	transmissionState:count 	59984
attr interpolationmode  sample-hold
attr source  transmissionStateChanged
attr title  "Radio transmission state, count"
scalar scenarioPRJP1.node[20].wlan.radio 	receptionState:count 	297235
attr interpolationmode  sample-hold
attr source  receptionStateChanged
attr title  "Radio reception state, count"
scalar scenarioPRJP1.node[20].wlan.radio 	radioMode:count 	29994
attr interpolationmode  sample-hold
attr source  radioModeChanged
attr title  "Radio mode, count"
statistic scenarioPRJP1.node[20].wlan.radio 	symbolErrorRate:histogram
field count 0
field mean -nan
field stddev -nan
field sum 0
field sqrsum 0
field min -nan
field max -nan
attr source  symbolErrorRate
attr title  "Symbol error rate, histogram"
bin	-INF	0
bin	-0.5	0
bin	-0.46666666666667	0
bin	-0.43333333333333	0
bin	-0.4	0
bin	-0.36666666666667	0
bin	-0.33333333333333	0
bin	-0.3	0
bin	-0.26666666666667	0
bin	-0.23333333333333	0
bin	-0.2	0
bin	-0.16666666666667	0
bin	-0.13333333333333	0
bin	-0.1	0
bin	-0.066666666666667	0
bin	-0.033333333333333	0
bin	-6.9388939039072e-18	0
bin	0.033333333333333	0
bin	0.066666666666667	0
bin	0.1	0
bin	0.13333333333333	0
bin	0.16666666666667	0
bin	0.2	0
bin	0.23333333333333	0
bin	0.26666666666667	0
bin	0.3	0
bin	0.33333333333333	0
bin	0.36666666666667	0
bin	0.4	0
bin	0.43333333333333	0
bin	0.46666666666667	0
bin	0.5	0
statistic scenarioPRJP1.node[20].wlan.radio 	bitErrorRate:histogram
field count 0
field mean -nan
field stddev -nan
field sum 0
field sqrsum 0
field min -nan
field max -nan
attr source  bitErrorRate
attr title  "Bit error rate, histogram"
bin	-INF	0
bin	-0.5	0
bin	-0.46666666666667	0
bin	-0.43333333333333	0
bin	-0.4	0
bin	-0.36666666666667	0
bin	-0.33333333333333	0
bin	-0.3	0
bin	-0.26666666666667	0
bin	-0.23333333333333	0
bin	-0.2	0
bin	-0.16666666666667	0
bin	-0.13333333333333	0
bin	-0.1	0
bin	-0.066666666666667	0
bin	-0.033333333333333	0
bin	-6.9388939039072e-18	0
bin	0.033333333333333	0
bin	0.066666666666667	0
bin	0.1	0
bin	0.13333333333333	0
bin	0.16666666666667	0
bin	0.2	0
bin	0.23333333333333	0
bin	0.26666666666667	0
bin	0.3	0
bin	0.33333333333333	0
bin	0.36666666666667	0
bin	0.4	0
bin	0.43333333333333	0
bin	0.46666666666667	0
bin	0.5	0
statistic scenarioPRJP1.node[20].wlan.radio 	packetErrorRate:histogram
field count 115536
field mean 0.39743804233275
field stddev 0.48095818423759
field sum 45918.401658957
field sqrsum 44975.36540029
field min 0
field max 1
attr source  packetErrorRate
attr title  "Packet error rate, histogram"
bin	-INF	0
bin	-0.5	0
bin	-0.43333333333333	0
bin	-0.36666666666667	0
bin	-0.3	0
bin	-0.23333333333333	0
bin	-0.16666666666667	0
bin	-0.1	0
bin	-0.033333333333333	65856
bin	0.033333333333333	1474
bin	0.1	710
bin	0.16666666666667	501
bin	0.23333333333333	428
bin	0.3	348
bin	0.36666666666667	321
bin	0.43333333333333	285
bin	0.5	244
bin	0.56666666666667	237
bin	0.63333333333333	255
bin	0.7	264
bin	0.76666666666667	293
bin	0.83333333333333	328
bin	0.9	517
bin	0.96666666666667	43475
bin	1.0333333333333	0
bin	1.1	0
bin	1.1666666666667	0
bin	1.2333333333333	0
bin	1.3	0
bin	1.3666666666667	0
bin	1.4333333333333	0
bin	1.5	0
statistic scenarioPRJP1.node[20].wlan.radio 	minSNIR:histogram
field count 115536
field mean 706.07214413206
field stddev 12735.739173858
field sum 81576751.244442
field sqrsum 18797266579667
field min 0.00010425316435635
field max 1077429.4535372
attr source  minSNIR
attr title  "Min SNIR, histogram"
bin	-INF	0
bin	-13789.473789046	0
bin	-11950.866531421	0
bin	-10112.259273796	0
bin	-8273.6520161705	0
bin	-6435.0447585453	0
bin	-4596.4375009202	0
bin	-2757.830243295	0
bin	-919.22298566989	110653
bin	919.38427195526	2445
bin	2757.9915295804	697
bin	4596.5987872056	372
bin	6435.2060448307	250
bin	8273.8133024559	169
bin	10112.420560081	113
bin	11951.027817706	91
bin	13789.635075331	84
bin	15628.242332956	56
bin	17466.849590582	51
bin	19305.456848207	46
bin	21144.064105832	35
bin	22982.671363457	28
bin	24821.278621082	18
bin	26659.885878707	35
bin	28498.493136332	24
bin	30337.100393958	24
bin	32175.707651583	14
bin	34014.314909208	8
bin	35852.922166833	12
bin	37691.529424458	13
bin	39530.136682083	10
bin	41368.743939709	288
scalar scenarioPRJP1.node[20].lo0.lo 	droppedPkBitError:count 	0
attr interpolationmode  none
attr source  dropPkBitError
attr title  "packets dropped/bit error, count"
scalar scenarioPRJP1.node[20].lo0.lo 	droppedPkBitError:sum(packetBytes) 	0
attr interpolationmode  none
attr source  dropPkBitError
attr title  "packets dropped/bit error, sum(packetBytes)"
scalar scenarioPRJP1.node[20].lo0.lo 	rcvdPkFromHL:count 	7
attr interpolationmode  none
attr source  packetReceivedFromUpper
attr title  "packets received from higher layer, count"
scalar scenarioPRJP1.node[20].lo0.lo 	rcvdPkFromHL:sum(packetBytes) 	392
attr interpolationmode  none
attr source  packetReceivedFromUpper
attr title  "packets received from higher layer, sum(packetBytes)"
scalar scenarioPRJP1.node[20].lo0.lo 	passedUpPk:count 	7
attr interpolationmode  none
attr source  packetSentToUpper
attr title  "packets passed to higher layer, count"
scalar scenarioPRJP1.node[20].lo0.lo 	passedUpPk:sum(packetBytes) 	392
attr interpolationmode  none
attr source  packetSentToUpper
attr title  "packets passed to higher layer, sum(packetBytes)"
scalar scenarioPRJP1.node[54].app 	"Total sent" 	2614
scalar scenarioPRJP1.node[54].app 	"Total received" 	164
scalar scenarioPRJP1.node[54].app 	"Total deleted" 	0
scalar scenarioPRJP1.node[54].app 	dropPk:count 	0
attr interpolationmode  none
attr source  dropPk
attr title  "packets dropped, count"
scalar scenarioPRJP1.node[54].app 	dropPk:sum(packetBytes) 	0
attr interpolationmode  none
attr source  dropPk
attr title  "packets dropped, sum(packetBytes)"
scalar scenarioPRJP1.node[54].app 	outOfOrderPk:count 	0
attr interpolationmode  none
attr source  outOfOrderPk
attr title  "packets received out of order, count"
scalar scenarioPRJP1.node[54].app 	outOfOrderPk:sum(packetBytes) 	0
attr interpolationmode  none
attr source  outOfOrderPk
attr title  "packets received out of order, sum(packetBytes)"
scalar scenarioPRJP1.node[54].app 	rcvdPk:count 	164
attr interpolationmode  none
attr source  rcvdPk
attr title  "packets received, count"
scalar scenarioPRJP1.node[54].app 	rcvdPk:sum(packetBytes) 	83968
attr interpolationmode  none
attr source  rcvdPk
attr title  "packets received, sum(packetBytes)"
statistic scenarioPRJP1.node[54].app 	endToEndDelay:histogram
field count 164
field mean 0.17793842327505
field stddev 0.50156305092779
field sum 29.181901417108
field sqrsum 46.197757057455
field min 0.000945052915
field max 2.824777420901
attr interpolationmode  none
attr source  messageAge(rcvdPk)
attr title  "delay, histogram"
attr unit  s
bin	-INF	0
bin	-1.410971131078	0
bin	-1.2227156398789	0
bin	-1.0344601486799	0
bin	-0.8462046574808	0
bin	-0.65794916628173	0
bin	-0.46969367508267	0
bin	-0.2814381838836	0
bin	-0.093182692684533	137
bin	0.095072798514533	9
bin	0.2833282897136	2
bin	0.47158378091267	1
bin	0.65983927211173	2
bin	0.8480947633108	2
bin	1.0363502545099	1
bin	1.2246057457089	1
bin	1.412861236908	1
bin	1.6011167281071	0
bin	1.7893722193061	1
bin	1.9776277105052	5
bin	2.1658832017043	1
bin	2.3541386929033	0
bin	2.5423941841024	0
bin	2.7306496753015	1
bin	2.9189051665005	0
bin	3.1071606576996	0
bin	3.2954161488987	0
bin	3.4836716400977	0
bin	3.6719271312968	0
bin	3.8601826224959	0
bin	4.0484381136949	0
bin	4.236693604894	0
scalar scenarioPRJP1.node[54].app 	sentPk:count 	2614
attr interpolationmode  none
attr source  sentPk
attr title  "packets sent, count"
scalar scenarioPRJP1.node[54].app 	sentPk:sum(packetBytes) 	1338368
attr interpolationmode  none
attr source  sentPk
attr title  "packets sent, sum(packetBytes)"
scalar scenarioPRJP1.node[54].udp 	droppedPkBadChecksum:count 	0
attr interpolationmode  none
attr title  "packets dropped (checksum error), count"
scalar scenarioPRJP1.node[54].udp 	droppedPkWrongPort:count 	0
attr interpolationmode  none
attr title  "packets dropped (wrong port), count"
scalar scenarioPRJP1.node[54].udp 	passedUpPk:count 	164
attr interpolationmode  none
attr title  "packets passed up, count"
scalar scenarioPRJP1.node[54].udp 	rcvdPk:count 	164
attr interpolationmode  none
attr source  rcvdPk
attr title  "packets received, count"
scalar scenarioPRJP1.node[54].udp 	rcvdPk:sum(packetBytes) 	85280
attr interpolationmode  none
attr source  rcvdPk
attr title  "packets received, sum(packetBytes)"
scalar scenarioPRJP1.node[54].udp 	sentPk:count 	2614
attr interpolationmode  none
attr source  sentPk
attr title  "packets sent, count"
scalar scenarioPRJP1.node[54].udp 	sentPk:sum(packetBytes) 	1359280
attr interpolationmode  none
attr source  sentPk
attr title  "packets sent, sum(packetBytes)"
scalar scenarioPRJP1.node[54].networkLayer.arp 	failedARPResolution:count 	223
attr title  "ARP failed resolutions, count"
scalar scenarioPRJP1.node[54].networkLayer.arp 	completedARPResolution:count 	2303
attr title  "ARP completed resolutions, count"
scalar scenarioPRJP1.node[54].networkLayer.arp 	initiatedARPResolution:count 	307
attr title  "ARP initiated resolutions, count"
scalar scenarioPRJP1.node[54].networkLayer.arp 	sentReply:count 	44
attr title  "ARP replies sent, count"
scalar scenarioPRJP1.node[54].networkLayer.arp 	sentReq:count 	819
attr title  "ARP request sent, count"
scalar scenarioPRJP1.node[54].mobility 	startTime 	5
scalar scenarioPRJP1.node[54].mobility 	totalTime 	945
scalar scenarioPRJP1.node[54].mobility 	stopTime 	950
scalar scenarioPRJP1.node[54].mobility 	minSpeed 	2.4763615377433e-13
scalar scenarioPRJP1.node[54].mobility 	maxSpeed 	16.163359625945
scalar scenarioPRJP1.node[54].mobility 	totalDistance 	9916.0059398411
scalar scenarioPRJP1.node[54].mobility 	totalCO2Emission 	2371.2629516164
scalar scenarioPRJP1.node[54].wlan.mgmt 	dataQueueLen:max 	4
attr interpolationmode  sample-hold
attr title  "data queue length, max"
scalar scenarioPRJP1.node[54].wlan.mgmt 	dataQueueLen:timeavg 	0
attr interpolationmode  sample-hold
attr title  "data queue length, timeavg"
scalar scenarioPRJP1.node[54].wlan.mgmt 	dropPkByQueue:count 	0
attr interpolationmode  none
attr source  dropPkByQueue
attr title  "packets dropped by queue, count"
scalar scenarioPRJP1.node[54].wlan.mgmt 	dropPkByQueue:sum(packetBytes) 	0
attr interpolationmode  none
attr source  dropPkByQueue
attr title  "packets dropped by queue, sum(packetBytes)"
scalar scenarioPRJP1.node[54].wlan.mac 	"number of received packets" 	1250
scalar scenarioPRJP1.node[54].wlan.mac 	"number of collisions" 	47261
scalar scenarioPRJP1.node[54].wlan.mac 	"number of internal collisions" 	4
scalar scenarioPRJP1.node[54].wlan.mac 	"number of retry for AC 0" 	6147
scalar scenarioPRJP1.node[54].wlan.mac 	"number of retry for AC 1" 	40
scalar scenarioPRJP1.node[54].wlan.mac 	"number of retry for AC 2" 	0
scalar scenarioPRJP1.node[54].wlan.mac 	"number of retry for AC 3" 	0
scalar scenarioPRJP1.node[54].wlan.mac 	"sent and received bits" 	42336320
scalar scenarioPRJP1.node[54].wlan.mac 	"sent packet within AC 0" 	810
scalar scenarioPRJP1.node[54].wlan.mac 	"sent packet within AC 1" 	40
scalar scenarioPRJP1.node[54].wlan.mac 	"sent packet within AC 2" 	0
scalar scenarioPRJP1.node[54].wlan.mac 	"sent packet within AC 3" 	0
scalar scenarioPRJP1.node[54].wlan.mac 	"sent in TXOP " 	0
scalar scenarioPRJP1.node[54].wlan.mac 	"sentWithoutRetry AC 0" 	585
scalar scenarioPRJP1.node[54].wlan.mac 	"sentWithoutRetry AC 1" 	31
scalar scenarioPRJP1.node[54].wlan.mac 	"sentWithoutRetry AC 2" 	0
scalar scenarioPRJP1.node[54].wlan.mac 	"sentWithoutRetry AC 3" 	0
scalar scenarioPRJP1.node[54].wlan.mac 	"numGivenUp AC 0" 	925
scalar scenarioPRJP1.node[54].wlan.mac 	"numGivenUp AC 1" 	2
scalar scenarioPRJP1.node[54].wlan.mac 	"numGivenUp AC 2" 	0
scalar scenarioPRJP1.node[54].wlan.mac 	"numGivenUp AC 3" 	0
scalar scenarioPRJP1.node[54].wlan.mac 	"numDropped AC 0" 	0
scalar scenarioPRJP1.node[54].wlan.mac 	"numDropped AC 1" 	0
scalar scenarioPRJP1.node[54].wlan.mac 	"numDropped AC 2" 	0
scalar scenarioPRJP1.node[54].wlan.mac 	"numDropped AC 3" 	0
scalar scenarioPRJP1.node[54].wlan.mac 	rcvdPkFromLL:count 	111798
attr interpolationmode  none
attr source  packetReceivedFromLower
attr title  "packets received from lower layer, count"
scalar scenarioPRJP1.node[54].wlan.mac 	rcvdPkFromLL:sum(packetBytes) 	71684084
attr interpolationmode  none
attr source  packetReceivedFromLower
attr title  "packets received from lower layer, sum(packetBytes)"
scalar scenarioPRJP1.node[54].wlan.mac 	sentDownPk:count 	14634
attr interpolationmode  none
attr source  packetSentToLower
attr title  "packets sent to lower layer, count"
scalar scenarioPRJP1.node[54].wlan.mac 	sentDownPk:sum(packetBytes) 	9281148
attr interpolationmode  none
attr source  packetSentToLower
attr title  "packets sent to lower layer, sum(packetBytes)"
scalar scenarioPRJP1.node[54].wlan.mac 	rcvdPkFromHL:count 	7202
attr interpolationmode  none
attr source  packetReceivedFromUpper
attr title  "packets received from higher layer, count"
scalar scenarioPRJP1.node[54].wlan.mac 	rcvdPkFromHL:sum(packetBytes) 	5811776
attr interpolationmode  none
attr source  packetReceivedFromUpper
attr title  "packets received from higher layer, sum(packetBytes)"
scalar scenarioPRJP1.node[54].wlan.mac 	passedUpPk:count 	30113
attr interpolationmode  none
attr source  packetSentToUpper
attr title  "packets passed to higher layer, count"
scalar scenarioPRJP1.node[54].wlan.mac 	passedUpPk:sum(packetBytes) 	28059000
attr interpolationmode  none
attr source  packetSentToUpper
attr title  "packets passed to higher layer, sum(packetBytes)"
statistic scenarioPRJP1.node[54].wlan.radio 	radioChannel:histogram
field count 1
field mean 3
field stddev -nan
field sum 3
field sqrsum 9
field min 3
field max 3
attr interpolationmode  sample-hold
attr source  radioChannelChanged
attr title  "Radio channel, histogram"
bin	-INF	0
bin	2	0
bin	3	1
bin	4	0
scalar scenarioPRJP1.node[54].wlan.radio 	transmissionState:count 	58536
attr interpolationmode  sample-hold
attr source  transmissionStateChanged
attr title  "Radio transmission state, count"
scalar scenarioPRJP1.node[54].wlan.radio 	receptionState:count 	287964
attr interpolationmode  sample-hold
attr source  receptionStateChanged
attr title  "Radio reception state, count"
scalar scenarioPRJP1.node[54].wlan.radio 	radioMode:count 	29270
attr interpolationmode  sample-hold
attr source  radioModeChanged
attr title  "Radio mode, count"
statistic scenarioPRJP1.node[54].wlan.radio 	symbolErrorRate:histogram
field count 0
field mean -nan
field stddev -nan
field sum 0
field sqrsum 0
field min -nan
field max -nan
attr source  symbolErrorRate
attr title  "Symbol error rate, histogram"
bin	-INF	0
bin	-0.5	0
bin	-0.46666666666667	0
bin	-0.43333333333333	0
bin	-0.4	0
bin	-0.36666666666667	0
bin	-0.33333333333333	0
bin	-0.3	0
bin	-0.26666666666667	0
bin	-0.23333333333333	0
bin	-0.2	0
bin	-0.16666666666667	0
bin	-0.13333333333333	0
bin	-0.1	0
bin	-0.066666666666667	0
bin	-0.033333333333333	0
bin	-6.9388939039072e-18	0
bin	0.033333333333333	0
bin	0.066666666666667	0
bin	0.1	0
bin	0.13333333333333	0
bin	0.16666666666667	0
bin	0.2	0
bin	0.23333333333333	0
bin	0.26666666666667	0
bin	0.3	0
bin	0.33333333333333	0
bin	0.36666666666667	0
bin	0.4	0
bin	0.43333333333333	0
bin	0.46666666666667	0
bin	0.5	0
statistic scenarioPRJP1.node[54].wlan.radio 	bitErrorRate:histogram
field count 0
field mean -nan
field stddev -nan
field sum 0
field sqrsum 0
field min -nan
field max -nan
attr source  bitErrorRate
attr title  "Bit error rate, histogram"
bin	-INF	0
bin	-0.5	0
bin	-0.46666666666667	0
bin	-0.43333333333333	0
bin	-0.4	0
bin	-0.36666666666667	0
bin	-0.33333333333333	0
bin	-0.3	0
bin	-0.26666666666667	0
bin	-0.23333333333333	0
bin	-0.2	0
bin	-0.16666666666667	0
bin	-0.13333333333333	0
bin	-0.1	0
bin	-0.066666666666667	0
bin	-0.033333333333333	0
bin	-6.9388939039072e-18	0
bin	0.033333333333333	0
bin	0.066666666666667	0
bin	0.1	0
bin	0.13333333333333	0
bin	0.16666666666667	0
bin	0.2	0
bin	0.23333333333333	0
bin	0.26666666666667	0
bin	0.3	0
bin	0.33333333333333	0
bin	0.36666666666667	0
bin	0.4	0
bin	0.43333333333333	0
bin	0.46666666666667	0
bin	0.5	0
statistic scenarioPRJP1.node[54].wlan.radio 	packetErrorRate:histogram
field count 111798
field mean 0.40406224375438
field stddev 0.48209859331972
field sum 45173.350727252
field sqrsum 44236.598397115
field min 0
field max 1
attr source  packetErrorRate
attr title  "Packet error rate, histogram"
bin	-INF	0
bin	-0.5	0
bin	-0.43333333333333	0
bin	-0.36666666666667	0
bin	-0.3	0
bin	-0.23333333333333	0
bin	-0.16666666666667	0
bin	-0.1	0
bin	-0.033333333333333	62899
bin	0.033333333333333	1457
bin	0.1	724
bin	0.16666666666667	487
bin	0.23333333333333	422
bin	0.3	338
bin	0.36666666666667	285
bin	0.43333333333333	262
bin	0.5	250
bin	0.56666666666667	258
bin	0.63333333333333	284
bin	0.7	260
bin	0.76666666666667	290
bin	0.83333333333333	369
bin	0.9	487
bin	0.96666666666667	42726
bin	1.0333333333333	0
bin	1.1	0
bin	1.1666666666667	0
bin	1.2333333333333	0
bin	1.3	0
bin	1.3666666666667	0
bin	1.4333333333333	0
bin	1.5	0
statistic scenarioPRJP1.node[54].wlan.radio 	minSNIR:histogram
field count 111798
field mean 587.03777941619
field stddev 10399.928448591
field sum 65629649.663171
field sqrsum 12130324220330
field min 7.5378043382302e-05
field max 1901971.0887362
attr source  minSNIR
attr title  "Min SNIR, histogram"
bin	-INF	0
bin	-57144.857806377	0
bin	-49525.532162657	0
bin	-41906.206518937	0
bin	-34286.880875217	0
bin	-26667.555231496	0
bin	-19048.229587776	0
bin	-11428.903944056	0
bin	-3809.5783003355	110080
bin	3809.7473433848	931
bin	11429.072987105	235
bin	19048.398630825	119
bin	26667.724274546	82
bin	34287.049918266	63
bin	41906.375561986	48
bin	49525.701205706	29
bin	57145.026849427	23
bin	64764.352493147	19
bin	72383.678136867	10
bin	80003.003780587	19
bin	87622.329424308	15
bin	95241.655068028	11
bin	102860.98071175	11
bin	110480.30635547	7
bin	118099.63199919	4
bin	125718.95764291	7
bin	133338.28328663	6
bin	140957.60893035	8
bin	148576.93457407	4
bin	156196.26021779	4
bin	163815.58586151	5
bin	171434.91150523	58
scalar scenarioPRJP1.node[54].lo0.lo 	droppedPkBitError:count 	0
attr interpolationmode  none
attr source  dropPkBitError
attr title  "packets dropped/bit error, count"
scalar scenarioPRJP1.node[54].lo0.lo 	droppedPkBitError:sum(packetBytes) 	0
attr interpolationmode  none
attr source  dropPkBitError
attr title  "packets dropped/bit error, sum(packetBytes)"
scalar scenarioPRJP1.node[54].lo0.lo 	rcvdPkFromHL:count 	1
attr interpolationmode  none
attr source  packetReceivedFromUpper
attr title  "packets received from higher layer, count"
scalar scenarioPRJP1.node[54].lo0.lo 	rcvdPkFromHL:sum(packetBytes) 	56
attr interpolationmode  none
attr source  packetReceivedFromUpper
attr title  "packets received from higher layer, sum(packetBytes)"
scalar scenarioPRJP1.node[54].lo0.lo 	passedUpPk:count 	1
attr interpolationmode  none
attr source  packetSentToUpper
attr title  "packets passed to higher layer, count"
scalar scenarioPRJP1.node[54].lo0.lo 	passedUpPk:sum(packetBytes) 	56
attr interpolationmode  none
attr source  packetSentToUpper
attr title  "packets passed to higher layer, sum(packetBytes)"
scalar scenarioPRJP1.node[73].app 	"Total sent" 	2607
scalar scenarioPRJP1.node[73].app 	"Total received" 	139
scalar scenarioPRJP1.node[73].app 	"Total deleted" 	0
scalar scenarioPRJP1.node[73].app 	dropPk:count 	0
attr interpolationmode  none
attr source  dropPk
attr title  "packets dropped, count"
scalar scenarioPRJP1.node[73].app 	dropPk:sum(packetBytes) 	0
attr interpolationmode  none
attr source  dropPk
attr title  "packets dropped, sum(packetBytes)"
scalar scenarioPRJP1.node[73].app 	outOfOrderPk:count 	1
attr interpolationmode  none
attr source  outOfOrderPk
attr title  "packets received out of order, count"
scalar scenarioPRJP1.node[73].app 	outOfOrderPk:sum(packetBytes) 	512
attr interpolationmode  none
attr source  outOfOrderPk
attr title  "packets received out of order, sum(packetBytes)"
scalar scenarioPRJP1.node[73].app 	rcvdPk:count 	139
attr interpolationmode  none
attr source  rcvdPk
attr title  "packets received, count"
scalar scenarioPRJP1.node[73].app 	rcvdPk:sum(packetBytes) 	71168
attr interpolationmode  none
attr source  rcvdPk
attr title  "packets received, sum(packetBytes)"
statistic scenarioPRJP1.node[73].app 	endToEndDelay:histogram
field count 139
field mean 0.26438864447034
field stddev 0.56721985424675
field sum 36.750021581377
field sqrsum 54.116182491291
field min 0.000945010996
field max 2.551646790596
attr interpolationmode  none
attr source  messageAge(rcvdPk)
attr title  "delay, histogram"
attr unit  s
bin	-INF	0
bin	-1.147252079605	0
bin	-0.99415913419153	0
bin	-0.84106618877807	0
bin	-0.6879732433646	0
bin	-0.53488029795113	0
bin	-0.38178735253767	0
bin	-0.2286944071242	0
bin	-0.075601461710733	103
bin	0.077491483702733	10
bin	0.2305844291162	3
bin	0.38367737452967	0
bin	0.53677031994313	1
bin	0.6898632653566	0
bin	0.84295621077007	4
bin	0.99604915618353	7
bin	1.149142101597	0
bin	1.3022350470105	1
bin	1.4553279924239	2
bin	1.6084209378374	1
bin	1.7615138832509	0
bin	1.9146068286643	4
bin	2.0676997740778	1
bin	2.2207927194913	1
bin	2.3738856649047	0
bin	2.5269786103182	1
bin	2.6800715557317	0
bin	2.8331645011451	0
bin	2.9862574465586	0
bin	3.1393503919721	0
bin	3.2924433373855	0
bin	3.445536282799	0
scalar scenarioPRJP1.node[73].app 	sentPk:count 	2607
attr interpolationmode  none
attr source  sentPk
attr title  "packets sent, count"
scalar scenarioPRJP1.node[73].app 	sentPk:sum(packetBytes) 	1334784
attr interpolationmode  none
attr source  sentPk
attr title  "packets sent, sum(packetBytes)"
scalar scenarioPRJP1.node[73].udp 	droppedPkBadChecksum:count 	0
attr interpolationmode  none
attr title  "packets dropped (checksum error), count"
scalar scenarioPRJP1.node[73].udp 	droppedPkWrongPort:count 	0
attr interpolationmode  none
attr title  "packets dropped (wrong port), count"
scalar scenarioPRJP1.node[73].udp 	passedUpPk:count 	140
attr interpolationmode  none
attr title  "packets passed up, count"
scalar scenarioPRJP1.node[73].udp 	rcvdPk:count 	140
attr interpolationmode  none
attr source  rcvdPk
attr title  "packets received, count"
scalar scenarioPRJP1.node[73].udp 	rcvdPk:sum(packetBytes) 	72800
attr interpolationmode  none
attr source  rcvdPk
attr title  "packets received, sum(packetBytes)"
scalar scenarioPRJP1.node[73].udp 	sentPk:count 	2607
attr interpolationmode  none
attr source  sentPk
attr title  "packets sent, count"
scalar scenarioPRJP1.node[73].udp 	sentPk:sum(packetBytes) 	1355640
attr interpolationmode  none
attr source  sentPk
attr title  "packets sent, sum(packetBytes)"
scalar scenarioPRJP1.node[73].networkLayer.arp 	failedARPResolution:count 	186
attr title  "ARP failed resolutions, count"
scalar scenarioPRJP1.node[73].networkLayer.arp 	completedARPResolution:count 	1920
attr title  "ARP completed resolutions, count"
scalar scenarioPRJP1.node[73].networkLayer.arp 	initiatedARPResolution:count 	262
attr title  "ARP initiated resolutions, count"
scalar scenarioPRJP1.node[73].networkLayer.arp 	sentReply:count 	58
attr title  "ARP replies sent, count"
scalar scenarioPRJP1.node[73].networkLayer.arp 	sentReq:count 	694
attr title  "ARP request sent, count"
scalar scenarioPRJP1.node[73].mobility 	startTime 	7.4
scalar scenarioPRJP1.node[73].mobility 	totalTime 	942.6
scalar scenarioPRJP1.node[73].mobility 	stopTime 	950
scalar scenarioPRJP1.node[73].mobility 	minSpeed 	2.4755299346863e-13
scalar scenarioPRJP1.node[73].mobility 	maxSpeed 	13.564661477164
scalar scenarioPRJP1.node[73].mobility 	totalDistance 	8201.9686898722
scalar scenarioPRJP1.node[73].mobility 	totalCO2Emission 	2080.8228119996
scalar scenarioPRJP1.node[73].wlan.mgmt 	dataQueueLen:max 	2
attr interpolationmode  sample-hold
attr title  "data queue length, max"
scalar scenarioPRJP1.node[73].wlan.mgmt 	dataQueueLen:timeavg 	0
attr interpolationmode  sample-hold
attr title  "data queue length, timeavg"
scalar scenarioPRJP1.node[73].wlan.mgmt 	dropPkByQueue:count 	0
attr interpolationmode  none
attr source  dropPkByQueue
attr title  "packets dropped by queue, count"
scalar scenarioPRJP1.node[73].wlan.mgmt 	dropPkByQueue:sum(packetBytes) 	0
attr interpolationmode  none
attr source  dropPkByQueue
attr title  "packets dropped by queue, sum(packetBytes)"
scalar scenarioPRJP1.node[73].wlan.mac 	"number of received packets" 	1119
scalar scenarioPRJP1.node[73].wlan.mac 	"number of collisions" 	46479
scalar scenarioPRJP1.node[73].wlan.mac 	"number of internal collisions" 	3
scalar scenarioPRJP1.node[73].wlan.mac 	"number of retry for AC 0" 	6807
scalar scenarioPRJP1.node[73].wlan.mac 	"number of retry for AC 1" 	35
scalar scenarioPRJP1.node[73].wlan.mac 	"number of retry for AC 2" 	0
scalar scenarioPRJP1.node[73].wlan.mac 	"number of retry for AC 3" 	0
scalar scenarioPRJP1.node[73].wlan.mac 	"sent and received bits" 	38417120
scalar scenarioPRJP1.node[73].wlan.mac 	"sent packet within AC 0" 	684
scalar scenarioPRJP1.node[73].wlan.mac 	"sent packet within AC 1" 	39
scalar scenarioPRJP1.node[73].wlan.mac 	"sent packet within AC 2" 	0
scalar scenarioPRJP1.node[73].wlan.mac 	"sent packet within AC 3" 	0
scalar scenarioPRJP1.node[73].wlan.mac 	"sent in TXOP " 	0
scalar scenarioPRJP1.node[73].wlan.mac 	"sentWithoutRetry AC 0" 	444
scalar scenarioPRJP1.node[73].wlan.mac 	"sentWithoutRetry AC 1" 	34
scalar scenarioPRJP1.node[73].wlan.mac 	"sentWithoutRetry AC 2" 	0
scalar scenarioPRJP1.node[73].wlan.mac 	"sentWithoutRetry AC 3" 	0
scalar scenarioPRJP1.node[73].wlan.mac 	"numGivenUp AC 0" 	1028
scalar scenarioPRJP1.node[73].wlan.mac 	"numGivenUp AC 1" 	4
scalar scenarioPRJP1.node[73].wlan.mac 	"numGivenUp AC 2" 	0
scalar scenarioPRJP1.node[73].wlan.mac 	"numGivenUp AC 3" 	0
scalar scenarioPRJP1.node[73].wlan.mac 	"numDropped AC 0" 	0
scalar scenarioPRJP1.node[73].wlan.mac 	"numDropped AC 1" 	0
scalar scenarioPRJP1.node[73].wlan.mac 	"numDropped AC 2" 	0
scalar scenarioPRJP1.node[73].wlan.mac 	"numDropped AC 3" 	0
scalar scenarioPRJP1.node[73].wlan.mac 	rcvdPkFromLL:count 	101450
attr interpolationmode  none
attr source  packetReceivedFromLower
attr title  "packets received from lower layer, count"
scalar scenarioPRJP1.node[73].wlan.mac 	rcvdPkFromLL:sum(packetBytes) 	65915344
attr interpolationmode  none
attr source  packetReceivedFromLower
attr title  "packets received from lower layer, sum(packetBytes)"
scalar scenarioPRJP1.node[73].wlan.mac 	sentDownPk:count 	14605
attr interpolationmode  none
attr source  packetSentToLower
attr title  "packets sent to lower layer, count"
scalar scenarioPRJP1.node[73].wlan.mac 	sentDownPk:sum(packetBytes) 	9169298
attr interpolationmode  none
attr source  packetSentToLower
attr title  "packets sent to lower layer, sum(packetBytes)"
scalar scenarioPRJP1.node[73].wlan.mac 	rcvdPkFromHL:count 	6647
attr interpolationmode  none
attr source  packetReceivedFromUpper
attr title  "packets received from higher layer, count"
scalar scenarioPRJP1.node[73].wlan.mac 	rcvdPkFromHL:sum(packetBytes) 	5373132
attr interpolationmode  none
attr source  packetReceivedFromUpper
attr title  "packets received from higher layer, sum(packetBytes)"
scalar scenarioPRJP1.node[73].wlan.mac 	passedUpPk:count 	26808
attr interpolationmode  none
attr source  packetSentToUpper
attr title  "packets passed to higher layer, count"
scalar scenarioPRJP1.node[73].wlan.mac 	passedUpPk:sum(packetBytes) 	25175388
attr interpolationmode  none
attr source  packetSentToUpper
attr title  "packets passed to higher layer, sum(packetBytes)"
statistic scenarioPRJP1.node[73].wlan.radio 	radioChannel:histogram
field count 1
field mean 3
field stddev -nan
field sum 3
field sqrsum 9
field min 3
field max 3
attr interpolationmode  sample-hold
attr source  radioChannelChanged
attr title  "Radio channel, histogram"
bin	-INF	0
bin	2	0
bin	3	1
bin	4	0
scalar scenarioPRJP1.node[73].wlan.radio 	transmissionState:count 	58420
attr interpolationmode  sample-hold
attr source  transmissionStateChanged
attr title  "Radio transmission state, count"
scalar scenarioPRJP1.node[73].wlan.radio 	receptionState:count 	265478
attr interpolationmode  sample-hold
attr source  receptionStateChanged
attr title  "Radio reception state, count"
scalar scenarioPRJP1.node[73].wlan.radio 	radioMode:count 	29212
attr interpolationmode  sample-hold
attr source  radioModeChanged
attr title  "Radio mode, count"
statistic scenarioPRJP1.node[73].wlan.radio 	symbolErrorRate:histogram
field count 0
field mean -nan
field stddev -nan
field sum 0
field sqrsum 0
field min -nan
field max -nan
attr source  symbolErrorRate
attr title  "Symbol error rate, histogram"
bin	-INF	0
bin	-0.5	0
bin	-0.46666666666667	0
bin	-0.43333333333333	0
bin	-0.4	0
bin	-0.36666666666667	0
bin	-0.33333333333333	0
bin	-0.3	0
bin	-0.26666666666667	0
bin	-0.23333333333333	0
bin	-0.2	0
bin	-0.16666666666667	0
bin	-0.13333333333333	0
bin	-0.1	0
bin	-0.066666666666667	0
bin	-0.033333333333333	0
bin	-6.9388939039072e-18	0
bin	0.033333333333333	0
bin	0.066666666666667	0
bin	0.1	0
bin	0.13333333333333	0
bin	0.16666666666667	0
bin	0.2	0
bin	0.23333333333333	0
bin	0.26666666666667	0
bin	0.3	0
bin	0.33333333333333	0
bin	0.36666666666667	0
bin	0.4	0
bin	0.43333333333333	0
bin	0.46666666666667	0
bin	0.5	0
statistic scenarioPRJP1.node[73].wlan.radio 	bitErrorRate:histogram
field count 0
field mean -nan
field stddev -nan
field sum 0
field sqrsum 0
field min -nan
field max -nan
attr source  bitErrorRate
attr title  "Bit error rate, histogram"
bin	-INF	0
bin	-0.5	0
bin	-0.46666666666667	0
bin	-0.43333333333333	0
bin	-0.4	0
bin	-0.36666666666667	0
bin	-0.33333333333333	0
bin	-0.3	0
bin	-0.26666666666667	0
bin	-0.23333333333333	0
bin	-0.2	0
bin	-0.16666666666667	0
bin	-0.13333333333333	0
bin	-0.1	0
bin	-0.066666666666667	0
bin	-0.033333333333333	0
bin	-6.9388939039072e-18	0
bin	0.033333333333333	0
bin	0.066666666666667	0
bin	0.1	0
bin	0.13333333333333	0
bin	0.16666666666667	0
bin	0.2	0
bin	0.23333333333333	0
bin	0.26666666666667	0
bin	0.3	0
bin	0.33333333333333	0
bin	0.36666666666667	0
bin	0.4	0
bin	0.43333333333333	0
bin	0.46666666666667	0
bin	0.5	0
statistic scenarioPRJP1.node[73].wlan.radio 	packetErrorRate:histogram
field count 101450
field mean 0.43841270341797
field stddev 0.48728234768051
field sum 44476.968761754
field sqrsum 43587.733231917
field min 0
field max 1
attr source  packetErrorRate
attr title  "Packet error rate, histogram"
bin	-INF	0
bin	-0.5	0
bin	-0.43333333333333	0
bin	-0.36666666666667	0
bin	-0.3	0
bin	-0.23333333333333	0
bin	-0.16666666666667	0
bin	-0.1	0
bin	-0.033333333333333	53375
bin	0.033333333333333	1463
bin	0.1	688
bin	0.16666666666667	468
bin	0.23333333333333	380
bin	0.3	313
bin	0.36666666666667	300
bin	0.43333333333333	269
bin	0.5	249
bin	0.56666666666667	215
bin	0.63333333333333	224
bin	0.7	242
bin	0.76666666666667	281
bin	0.83333333333333	309
bin	0.9	547
bin	0.96666666666667	42127
bin	1.0333333333333	0
bin	1.1	0
bin	1.1666666666667	0
bin	1.2333333333333	0
bin	1.3	0
bin	1.3666666666667	0
bin	1.4333333333333	0
bin	1.5	0
statistic scenarioPRJP1.node[73].wlan.radio 	minSNIR:histogram
field count 101450
field mean 633.40947773305
field stddev 13088.978246901
field sum 64259391.516018
field sqrsum 17421082300796
field min 0.00011811277126146
field max 1473319.6160011
attr source  minSNIR
attr title  "Min SNIR, histogram"
bin	-INF	0
bin	-12490.346613947	0
bin	-10824.937588791	0
bin	-9159.5285636341	0
bin	-7494.1195384776	0
bin	-5828.7105133212	0
bin	-4163.3014881647	0
bin	-2497.8924630082	0
bin	-832.48343785173	97600
bin	832.92558730474	1938
bin	2498.3346124612	571
bin	4163.7436376177	290
bin	5829.1526627742	184
bin	7494.5616879306	113
bin	9159.9707130871	84
bin	10825.379738244	74
bin	12490.7887634	47
bin	14156.197788557	51
bin	15821.606813713	37
bin	17487.015838869	24
bin	19152.424864026	31
bin	20817.833889182	19
bin	22483.242914339	16
bin	24148.651939495	17
bin	25814.060964652	21
bin	27479.469989808	19
bin	29144.879014965	11
bin	30810.288040121	7
bin	32475.697065278	10
bin	34141.106090434	10
bin	35806.515115591	8
bin	37471.924140747	268
scalar scenarioPRJP1.node[73].lo0.lo 	droppedPkBitError:count 	0
attr interpolationmode  none
attr source  dropPkBitError
attr title  "packets dropped/bit error, count"
scalar scenarioPRJP1.node[73].lo0.lo 	droppedPkBitError:sum(packetBytes) 	0
attr interpolationmode  none
attr source  dropPkBitError
attr title  "packets dropped/bit error, sum(packetBytes)"
scalar scenarioPRJP1.node[73].lo0.lo 	rcvdPkFromHL:count 	5
attr interpolationmode  none
attr source  packetReceivedFromUpper
attr title  "packets received from higher layer, count"
scalar scenarioPRJP1.node[73].lo0.lo 	rcvdPkFromHL:sum(packetBytes) 	280
attr interpolationmode  none
attr source  packetReceivedFromUpper
attr title  "packets received from higher layer, sum(packetBytes)"
scalar scenarioPRJP1.node[73].lo0.lo 	passedUpPk:count 	5
attr interpolationmode  none
attr source  packetSentToUpper
attr title  "packets passed to higher layer, count"
scalar scenarioPRJP1.node[73].lo0.lo 	passedUpPk:sum(packetBytes) 	280
attr interpolationmode  none
attr source  packetSentToUpper
attr title  "packets passed to higher layer, sum(packetBytes)"
scalar scenarioPRJP1.node[93].app 	"Total sent" 	2618
scalar scenarioPRJP1.node[93].app 	"Total received" 	170
scalar scenarioPRJP1.node[93].app 	"Total deleted" 	0
scalar scenarioPRJP1.node[93].app 	dropPk:count 	0
attr interpolationmode  none
attr source  dropPk
attr title  "packets dropped, count"
scalar scenarioPRJP1.node[93].app 	dropPk:sum(packetBytes) 	0
attr interpolationmode  none
attr source  dropPk
attr title  "packets dropped, sum(packetBytes)"
scalar scenarioPRJP1.node[93].app 	outOfOrderPk:count 	0
attr interpolationmode  none
attr source  outOfOrderPk
attr title  "packets received out of order, count"
scalar scenarioPRJP1.node[93].app 	outOfOrderPk:sum(packetBytes) 	0
attr interpolationmode  none
attr source  outOfOrderPk
attr title  "packets received out of order, sum(packetBytes)"
scalar scenarioPRJP1.node[93].app 	rcvdPk:count 	170
attr interpolationmode  none
attr source  rcvdPk
attr title  "packets received, count"
scalar scenarioPRJP1.node[93].app 	rcvdPk:sum(packetBytes) 	87040
attr interpolationmode  none
attr source  rcvdPk
attr title  "packets received, sum(packetBytes)"
statistic scenarioPRJP1.node[93].app 	endToEndDelay:histogram
field count 170
field mean 0.16387160570712
field stddev 0.44768658858079
field sum 27.858172970211
field sqrsum 38.436698126269
field min 0.000945010996
field max 2.612382105021
attr interpolationmode  none
attr source  messageAge(rcvdPk)
attr title  "delay, histogram"
attr unit  s
bin	-INF	0
bin	-1.3047735360165	0
bin	-1.1306777297482	0
bin	-0.95658192347983	0
bin	-0.7824861172115	0
bin	-0.60839031094317	0
bin	-0.43429450467483	0
bin	-0.2601986984065	0
bin	-0.086102892138167	145
bin	0.087992914130167	6
bin	0.2620887203985	2
bin	0.43618452666683	0
bin	0.61028033293517	0
bin	0.7843761392035	3
bin	0.95847194547183	8
bin	1.1325677517402	0
bin	1.3066635580085	0
bin	1.4807593642768	0
bin	1.6548551705452	1
bin	1.8289509768135	3
bin	2.0030467830818	0
bin	2.1771425893502	0
bin	2.3512383956185	0
bin	2.5253342018868	2
bin	2.6994300081552	0
bin	2.8735258144235	0
bin	3.0476216206918	0
bin	3.2217174269602	0
bin	3.3958132332285	0
bin	3.5699090394968	0
bin	3.7440048457652	0
bin	3.9181006520335	0
scalar scenarioPRJP1.node[93].app 	sentPk:count 	2618
attr interpolationmode  none
attr source  sentPk
attr title  "packets sent, count"
scalar scenarioPRJP1.node[93].app 	sentPk:sum(packetBytes) 	1340416
attr interpolationmode  none
attr source  sentPk
attr title  "packets sent, sum(packetBytes)"
scalar scenarioPRJP1.node[93].udp 	droppedPkBadChecksum:count 	0
attr interpolationmode  none
attr title  "packets dropped (checksum error), count"
scalar scenarioPRJP1.node[93].udp 	droppedPkWrongPort:count 	0
attr interpolationmode  none
attr title  "packets dropped (wrong port), count"
scalar scenarioPRJP1.node[93].udp 	passedUpPk:count 	170
attr interpolationmode  none
attr title  "packets passed up, count"
scalar scenarioPRJP1.node[93].udp 	rcvdPk:count 	170
attr interpolationmode  none
attr source  rcvdPk
attr title  "packets received, count"
scalar scenarioPRJP1.node[93].udp 	rcvdPk:sum(packetBytes) 	88400
attr interpolationmode  none
attr source  rcvdPk
attr title  "packets received, sum(packetBytes)"
scalar scenarioPRJP1.node[93].udp 	sentPk:count 	2618
attr interpolationmode  none
attr source  sentPk
attr title  "packets sent, count"
scalar scenarioPRJP1.node[93].udp 	sentPk:sum(packetBytes) 	1361360
attr interpolationmode  none
attr source  sentPk
attr title  "packets sent, sum(packetBytes)"
scalar scenarioPRJP1.node[93].networkLayer.arp 	failedARPResolution:count 	202
attr title  "ARP failed resolutions, count"
scalar scenarioPRJP1.node[93].networkLayer.arp 	completedARPResolution:count 	2902
attr title  "ARP completed resolutions, count"
scalar scenarioPRJP1.node[93].networkLayer.arp 	initiatedARPResolution:count 	300
attr title  "ARP initiated resolutions, count"
scalar scenarioPRJP1.node[93].networkLayer.arp 	sentReply:count 	57
attr title  "ARP replies sent, count"
scalar scenarioPRJP1.node[93].networkLayer.arp 	sentReq:count 	781
attr title  "ARP request sent, count"
scalar scenarioPRJP1.node[93].mobility 	startTime 	9.8
scalar scenarioPRJP1.node[93].mobility 	totalTime 	940.2
scalar scenarioPRJP1.node[93].mobility 	stopTime 	950
scalar scenarioPRJP1.node[93].mobility 	minSpeed 	2.4754542886669e-13
scalar scenarioPRJP1.node[93].mobility 	maxSpeed 	19.095989084495
scalar scenarioPRJP1.node[93].mobility 	totalDistance 	8525.0682924118
scalar scenarioPRJP1.node[93].mobility 	totalCO2Emission 	2563.4110813375
scalar scenarioPRJP1.node[93].wlan.mgmt 	dataQueueLen:max 	2
attr interpolationmode  sample-hold
attr title  "data queue length, max"
scalar scenarioPRJP1.node[93].wlan.mgmt 	dataQueueLen:timeavg 	0
attr interpolationmode  sample-hold
attr title  "data queue length, timeavg"
scalar scenarioPRJP1.node[93].wlan.mgmt 	dropPkByQueue:count 	0
attr interpolationmode  none
attr source  dropPkByQueue
attr title  "packets dropped by queue, count"
scalar scenarioPRJP1.node[93].wlan.mgmt 	dropPkByQueue:sum(packetBytes) 	0
attr interpolationmode  none
attr source  dropPkByQueue
attr title  "packets dropped by queue, sum(packetBytes)"
scalar scenarioPRJP1.node[93].wlan.mac 	"number of received packets" 	1237
scalar scenarioPRJP1.node[93].wlan.mac 	"number of collisions" 	52391
scalar scenarioPRJP1.node[93].wlan.mac 	"number of internal collisions" 	1
scalar scenarioPRJP1.node[93].wlan.mac 	"number of retry for AC 0" 	6744
scalar scenarioPRJP1.node[93].wlan.mac 	"number of retry for AC 1" 	59
scalar scenarioPRJP1.node[93].wlan.mac 	"number of retry for AC 2" 	0
scalar scenarioPRJP1.node[93].wlan.mac 	"number of retry for AC 3" 	0
scalar scenarioPRJP1.node[93].wlan.mac 	"sent and received bits" 	43994848
scalar scenarioPRJP1.node[93].wlan.mac 	"sent packet within AC 0" 	910
scalar scenarioPRJP1.node[93].wlan.mac 	"sent packet within AC 1" 	25
scalar scenarioPRJP1.node[93].wlan.mac 	"sent packet within AC 2" 	0
scalar scenarioPRJP1.node[93].wlan.mac 	"sent packet within AC 3" 	0
scalar scenarioPRJP1.node[93].wlan.mac 	"sent in TXOP " 	0
scalar scenarioPRJP1.node[93].wlan.mac 	"sentWithoutRetry AC 0" 	647
scalar scenarioPRJP1.node[93].wlan.mac 	"sentWithoutRetry AC 1" 	18
scalar scenarioPRJP1.node[93].wlan.mac 	"sentWithoutRetry AC 2" 	0
scalar scenarioPRJP1.node[93].wlan.mac 	"sentWithoutRetry AC 3" 	0
scalar scenarioPRJP1.node[93].wlan.mac 	"numGivenUp AC 0" 	1012
scalar scenarioPRJP1.node[93].wlan.mac 	"numGivenUp AC 1" 	6
scalar scenarioPRJP1.node[93].wlan.mac 	"numGivenUp AC 2" 	0
scalar scenarioPRJP1.node[93].wlan.mac 	"numGivenUp AC 3" 	0
scalar scenarioPRJP1.node[93].wlan.mac 	"numDropped AC 0" 	0
scalar scenarioPRJP1.node[93].wlan.mac 	"numDropped AC 1" 	0
scalar scenarioPRJP1.node[93].wlan.mac 	"numDropped AC 2" 	0
scalar scenarioPRJP1.node[93].wlan.mac 	"numDropped AC 3" 	0
scalar scenarioPRJP1.node[93].wlan.mac 	rcvdPkFromLL:count 	131381
attr interpolationmode  none
attr source  packetReceivedFromLower
attr title  "packets received from lower layer, count"
scalar scenarioPRJP1.node[93].wlan.mac 	rcvdPkFromLL:sum(packetBytes) 	84224488
attr interpolationmode  none
attr source  packetReceivedFromLower
attr title  "packets received from lower layer, sum(packetBytes)"
scalar scenarioPRJP1.node[93].wlan.mac 	sentDownPk:count 	15551
attr interpolationmode  none
attr source  packetSentToLower
attr title  "packets sent to lower layer, count"
scalar scenarioPRJP1.node[93].wlan.mac 	sentDownPk:sum(packetBytes) 	9886622
attr interpolationmode  none
attr source  packetSentToLower
attr title  "packets sent to lower layer, sum(packetBytes)"
scalar scenarioPRJP1.node[93].wlan.mac 	rcvdPkFromHL:count 	7512
attr interpolationmode  none
attr source  packetReceivedFromUpper
attr title  "packets received from higher layer, count"
scalar scenarioPRJP1.node[93].wlan.mac 	rcvdPkFromHL:sum(packetBytes) 	6068996
attr interpolationmode  none
attr source  packetReceivedFromUpper
attr title  "packets received from higher layer, sum(packetBytes)"
scalar scenarioPRJP1.node[93].wlan.mac 	passedUpPk:count 	35776
attr interpolationmode  none
attr source  packetSentToUpper
attr title  "packets passed to higher layer, count"
scalar scenarioPRJP1.node[93].wlan.mac 	passedUpPk:sum(packetBytes) 	33278268
attr interpolationmode  none
attr source  packetSentToUpper
attr title  "packets passed to higher layer, sum(packetBytes)"
statistic scenarioPRJP1.node[93].wlan.radio 	radioChannel:histogram
field count 1
field mean 3
field stddev -nan
field sum 3
field sqrsum 9
field min 3
field max 3
attr interpolationmode  sample-hold
attr source  radioChannelChanged
attr title  "Radio channel, histogram"
bin	-INF	0
bin	2	0
bin	3	1
bin	4	0
scalar scenarioPRJP1.node[93].wlan.radio 	transmissionState:count 	62204
attr interpolationmode  sample-hold
attr source  transmissionStateChanged
attr title  "Radio transmission state, count"
scalar scenarioPRJP1.node[93].wlan.radio 	receptionState:count 	334652
attr interpolationmode  sample-hold
attr source  receptionStateChanged
attr title  "Radio reception state, count"
scalar scenarioPRJP1.node[93].wlan.radio 	radioMode:count 	31104
attr interpolationmode  sample-hold
attr source  radioModeChanged
attr title  "Radio mode, count"
statistic scenarioPRJP1.node[93].wlan.radio 	symbolErrorRate:histogram
field count 0
field mean -nan
field stddev -nan
field sum 0
field sqrsum 0
field min -nan
field max -nan
attr source  symbolErrorRate
attr title  "Symbol error rate, histogram"
bin	-INF	0
bin	-0.5	0
bin	-0.46666666666667	0
bin	-0.43333333333333	0
bin	-0.4	0
bin	-0.36666666666667	0
bin	-0.33333333333333	0
bin	-0.3	0
bin	-0.26666666666667	0
bin	-0.23333333333333	0
bin	-0.2	0
bin	-0.16666666666667	0
bin	-0.13333333333333	0
bin	-0.1	0
bin	-0.066666666666667	0
bin	-0.033333333333333	0
bin	-6.9388939039072e-18	0
bin	0.033333333333333	0
bin	0.066666666666667	0
bin	0.1	0
bin	0.13333333333333	0
bin	0.16666666666667	0
bin	0.2	0
bin	0.23333333333333	0
bin	0.26666666666667	0
bin	0.3	0
bin	0.33333333333333	0
bin	0.36666666666667	0
bin	0.4	0
bin	0.43333333333333	0
bin	0.46666666666667	0
bin	0.5	0
statistic scenarioPRJP1.node[93].wlan.radio 	bitErrorRate:histogram
field count 0
field mean -nan
field stddev -nan
field sum 0
field sqrsum 0
field min -nan
field max -nan
attr source  bitErrorRate
attr title  "Bit error rate, histogram"
bin	-INF	0
bin	-0.5	0
bin	-0.46666666666667	0
bin	-0.43333333333333	0
bin	-0.4	0
bin	-0.36666666666667	0
bin	-0.33333333333333	0
bin	-0.3	0
bin	-0.26666666666667	0
bin	-0.23333333333333	0
bin	-0.2	0
bin	-0.16666666666667	0
bin	-0.13333333333333	0
bin	-0.1	0
bin	-0.066666666666667	0
bin	-0.033333333333333	0
bin	-6.9388939039072e-18	0
bin	0.033333333333333	0
bin	0.066666666666667	0
bin	0.1	0
bin	0.13333333333333	0
bin	0.16666666666667	0
bin	0.2	0
bin	0.23333333333333	0
bin	0.26666666666667	0
bin	0.3	0
bin	0.33333333333333	0
bin	0.36666666666667	0
bin	0.4	0
bin	0.43333333333333	0
bin	0.46666666666667	0
bin	0.5	0
statistic scenarioPRJP1.node[93].wlan.radio 	packetErrorRate:histogram
field count 131381
field mean 0.38186339242141
field stddev 0.47788836493681
field sum 50169.594359717
field sqrsum 49162.139772357
field min 0
field max 1
attr source  packetErrorRate
attr title  "Packet error rate, histogram"
bin	-INF	0
bin	-0.5	0
bin	-0.43333333333333	0
bin	-0.36666666666667	0
bin	-0.3	0
bin	-0.23333333333333	0
bin	-0.16666666666667	0
bin	-0.1	0
bin	-0.033333333333333	77184
bin	0.033333333333333	1595
bin	0.1	799
bin	0.16666666666667	549
bin	0.23333333333333	406
bin	0.3	332
bin	0.36666666666667	323
bin	0.43333333333333	293
bin	0.5	249
bin	0.56666666666667	288
bin	0.63333333333333	298
bin	0.7	300
bin	0.76666666666667	322
bin	0.83333333333333	351
bin	0.9	597
bin	0.96666666666667	47495
bin	1.0333333333333	0
bin	1.1	0
bin	1.1666666666667	0
bin	1.2333333333333	0
bin	1.3	0
bin	1.3666666666667	0
bin	1.4333333333333	0
bin	1.5	0
statistic scenarioPRJP1.node[93].wlan.radio 	minSNIR:histogram
field count 131381
field mean 787.14870323031
field stddev 12696.567026985
field sum 103416383.7791
field sqrsum 21260229811272
field min 6.2275158699517e-05
field max 1889854.6889294
attr source  minSNIR
attr title  "Min SNIR, histogram"
bin	-INF	0
bin	-8019.167433295	0
bin	-6949.8178991875	0
bin	-5880.4683650801	0
bin	-4811.1188309726	0
bin	-3741.7692968651	0
bin	-2672.4197627577	0
bin	-1603.0702286502	0
bin	-533.72069454273	121770
bin	535.62883956473	4898
bin	1604.9783736722	1300
bin	2674.3279077797	671
bin	3743.6774418871	419
bin	4813.0269759946	298
bin	5882.3765101021	227
bin	6951.7260442095	189
bin	8021.075578317	125
bin	9090.4251124245	110
bin	10159.774646532	109
bin	11229.124180639	87
bin	12298.473714747	81
bin	13367.823248854	64
bin	14437.172782962	54
bin	15506.522317069	50
bin	16575.871851177	29
bin	17645.221385284	42
bin	18714.570919392	42
bin	19783.920453499	31
bin	20853.269987607	39
bin	21922.619521714	34
bin	22991.969055822	33
bin	24061.318589929	679
scalar scenarioPRJP1.node[93].lo0.lo 	droppedPkBitError:count 	0
attr interpolationmode  none
attr source  dropPkBitError
attr title  "packets dropped/bit error, count"
scalar scenarioPRJP1.node[93].lo0.lo 	droppedPkBitError:sum(packetBytes) 	0
attr interpolationmode  none
attr source  dropPkBitError
attr title  "packets dropped/bit error, sum(packetBytes)"
scalar scenarioPRJP1.node[93].lo0.lo 	rcvdPkFromHL:count 	5
attr interpolationmode  none
attr source  packetReceivedFromUpper
attr title  "packets received from higher layer, count"
scalar scenarioPRJP1.node[93].lo0.lo 	rcvdPkFromHL:sum(packetBytes) 	280
attr interpolationmode  none
attr source  packetReceivedFromUpper
attr title  "packets received from higher layer, sum(packetBytes)"
scalar scenarioPRJP1.node[93].lo0.lo 	passedUpPk:count 	5
attr interpolationmode  none
attr source  packetSentToUpper
attr title  "packets passed to higher layer, count"
scalar scenarioPRJP1.node[93].lo0.lo 	passedUpPk:sum(packetBytes) 	280
attr interpolationmode  none
attr source  packetSentToUpper
attr title  "packets passed to higher layer, sum(packetBytes)"
scalar scenarioPRJP1.node[1].app 	"Total sent" 	2605
scalar scenarioPRJP1.node[1].app 	"Total received" 	152
scalar scenarioPRJP1.node[1].app 	"Total deleted" 	0
scalar scenarioPRJP1.node[1].app 	dropPk:count 	0
attr interpolationmode  none
attr source  dropPk
attr title  "packets dropped, count"
scalar scenarioPRJP1.node[1].app 	dropPk:sum(packetBytes) 	0
attr interpolationmode  none
attr source  dropPk
attr title  "packets dropped, sum(packetBytes)"
scalar scenarioPRJP1.node[1].app 	outOfOrderPk:count 	0
attr interpolationmode  none
attr source  outOfOrderPk
attr title  "packets received out of order, count"
scalar scenarioPRJP1.node[1].app 	outOfOrderPk:sum(packetBytes) 	0
attr interpolationmode  none
attr source  outOfOrderPk
attr title  "packets received out of order, sum(packetBytes)"
scalar scenarioPRJP1.node[1].app 	rcvdPk:count 	152
attr interpolationmode  none
attr source  rcvdPk
attr title  "packets received, count"
scalar scenarioPRJP1.node[1].app 	rcvdPk:sum(packetBytes) 	77824
attr interpolationmode  none
attr source  rcvdPk
attr title  "packets received, sum(packetBytes)"
statistic scenarioPRJP1.node[1].app 	endToEndDelay:histogram
field count 152
field mean 0.18537964379059
field stddev 0.49884474824424
field sum 28.177705856169
field sqrsum 42.799331584932
field min 0.000945071494
field max 3.063473951585
attr interpolationmode  none
attr source  messageAge(rcvdPk)
attr title  "delay, histogram"
attr unit  s
bin	-INF	0
bin	-1.0315254665695	0
bin	-0.89386272816103	0
bin	-0.75619998975257	0
bin	-0.6185372513441	0
bin	-0.48087451293563	0
bin	-0.34321177452717	0
bin	-0.2055490361187	0
bin	-0.067886297710233	123
bin	0.069776440698233	10
bin	0.2074391791067	0
bin	0.34510191751517	0
bin	0.48276465592363	3
bin	0.6204273943321	0
bin	0.75809013274057	3
bin	0.89575287114903	2
bin	1.0334156095575	2
bin	1.171078347966	1
bin	1.3087410863744	1
bin	1.4464038247829	1
bin	1.5840665631914	0
bin	1.7217293015998	1
bin	1.8593920400083	0
bin	1.9970547784168	4
bin	2.1347175168252	0
bin	2.2723802552337	0
bin	2.4100429936422	0
bin	2.5477057320506	0
bin	2.6853684704591	0
bin	2.8230312088676	0
bin	2.960693947276	1
bin	3.0983566856845	0
scalar scenarioPRJP1.node[1].app 	sentPk:count 	2605
attr interpolationmode  none
attr source  sentPk
attr title  "packets sent, count"
scalar scenarioPRJP1.node[1].app 	sentPk:sum(packetBytes) 	1333760
attr interpolationmode  none
attr source  sentPk
attr title  "packets sent, sum(packetBytes)"
scalar scenarioPRJP1.node[1].udp 	droppedPkBadChecksum:count 	0
attr interpolationmode  none
attr title  "packets dropped (checksum error), count"
scalar scenarioPRJP1.node[1].udp 	droppedPkWrongPort:count 	0
attr interpolationmode  none
attr title  "packets dropped (wrong port), count"
scalar scenarioPRJP1.node[1].udp 	passedUpPk:count 	152
attr interpolationmode  none
attr title  "packets passed up, count"
scalar scenarioPRJP1.node[1].udp 	rcvdPk:count 	152
attr interpolationmode  none
attr source  rcvdPk
attr title  "packets received, count"
scalar scenarioPRJP1.node[1].udp 	rcvdPk:sum(packetBytes) 	79040
attr interpolationmode  none
attr source  rcvdPk
attr title  "packets received, sum(packetBytes)"
scalar scenarioPRJP1.node[1].udp 	sentPk:count 	2605
attr interpolationmode  none
attr source  sentPk
attr title  "packets sent, count"
scalar scenarioPRJP1.node[1].udp 	sentPk:sum(packetBytes) 	1354600
attr interpolationmode  none
attr source  sentPk
attr title  "packets sent, sum(packetBytes)"
scalar scenarioPRJP1.node[1].networkLayer.arp 	failedARPResolution:count 	154
attr title  "ARP failed resolutions, count"
scalar scenarioPRJP1.node[1].networkLayer.arp 	completedARPResolution:count 	2774
attr title  "ARP completed resolutions, count"
scalar scenarioPRJP1.node[1].networkLayer.arp 	initiatedARPResolution:count 	246
attr title  "ARP initiated resolutions, count"
scalar scenarioPRJP1.node[1].networkLayer.arp 	sentReply:count 	71
attr title  "ARP replies sent, count"
scalar scenarioPRJP1.node[1].networkLayer.arp 	sentReq:count 	614
attr title  "ARP request sent, count"
scalar scenarioPRJP1.node[1].mobility 	startTime 	0.1
scalar scenarioPRJP1.node[1].mobility 	totalTime 	949.9
scalar scenarioPRJP1.node[1].mobility 	stopTime 	950
scalar scenarioPRJP1.node[1].mobility 	minSpeed 	2.475672394541e-13
scalar scenarioPRJP1.node[1].mobility 	maxSpeed 	16.740416055586
scalar scenarioPRJP1.node[1].mobility 	totalDistance 	9187.0968136615
scalar scenarioPRJP1.node[1].mobility 	totalCO2Emission 	2458.4254462217
scalar scenarioPRJP1.node[1].wlan.mgmt 	dataQueueLen:max 	2
attr interpolationmode  sample-hold
attr title  "data queue length, max"
scalar scenarioPRJP1.node[1].wlan.mgmt 	dataQueueLen:timeavg 	0
attr interpolationmode  sample-hold
attr title  "data queue length, timeavg"
scalar scenarioPRJP1.node[1].wlan.mgmt 	dropPkByQueue:count 	0
attr interpolationmode  none
attr source  dropPkByQueue
attr title  "packets dropped by queue, count"
scalar scenarioPRJP1.node[1].wlan.mgmt 	dropPkByQueue:sum(packetBytes) 	0
attr interpolationmode  none
attr source  dropPkByQueue
attr title  "packets dropped by queue, sum(packetBytes)"
scalar scenarioPRJP1.node[1].wlan.mac 	"number of received packets" 	1180
scalar scenarioPRJP1.node[1].wlan.mac 	"number of collisions" 	49906
scalar scenarioPRJP1.node[1].wlan.mac 	"number of internal collisions" 	2
scalar scenarioPRJP1.node[1].wlan.mac 	"number of retry for AC 0" 	7123
scalar scenarioPRJP1.node[1].wlan.mac 	"number of retry for AC 1" 	58
scalar scenarioPRJP1.node[1].wlan.mac 	"number of retry for AC 2" 	0
scalar scenarioPRJP1.node[1].wlan.mac 	"number of retry for AC 3" 	0
scalar scenarioPRJP1.node[1].wlan.mac 	"sent and received bits" 	42321280
scalar scenarioPRJP1.node[1].wlan.mac 	"sent packet within AC 0" 	767
scalar scenarioPRJP1.node[1].wlan.mac 	"sent packet within AC 1" 	27
scalar scenarioPRJP1.node[1].wlan.mac 	"sent packet within AC 2" 	0
scalar scenarioPRJP1.node[1].wlan.mac 	"sent packet within AC 3" 	0
scalar scenarioPRJP1.node[1].wlan.mac 	"sent in TXOP " 	0
scalar scenarioPRJP1.node[1].wlan.mac 	"sentWithoutRetry AC 0" 	522
scalar scenarioPRJP1.node[1].wlan.mac 	"sentWithoutRetry AC 1" 	20
scalar scenarioPRJP1.node[1].wlan.mac 	"sentWithoutRetry AC 2" 	0
scalar scenarioPRJP1.node[1].wlan.mac 	"sentWithoutRetry AC 3" 	0
scalar scenarioPRJP1.node[1].wlan.mac 	"numGivenUp AC 0" 	1077
scalar scenarioPRJP1.node[1].wlan.mac 	"numGivenUp AC 1" 	7
scalar scenarioPRJP1.node[1].wlan.mac 	"numGivenUp AC 2" 	0
scalar scenarioPRJP1.node[1].wlan.mac 	"numGivenUp AC 3" 	0
scalar scenarioPRJP1.node[1].wlan.mac 	"numDropped AC 0" 	0
scalar scenarioPRJP1.node[1].wlan.mac 	"numDropped AC 1" 	0
scalar scenarioPRJP1.node[1].wlan.mac 	"numDropped AC 2" 	0
scalar scenarioPRJP1.node[1].wlan.mac 	"numDropped AC 3" 	0
scalar scenarioPRJP1.node[1].wlan.mac 	rcvdPkFromLL:count 	117822
attr interpolationmode  none
attr source  packetReceivedFromLower
attr title  "packets received from lower layer, count"
scalar scenarioPRJP1.node[1].wlan.mac 	rcvdPkFromLL:sum(packetBytes) 	75796682
attr interpolationmode  none
attr source  packetReceivedFromLower
attr title  "packets received from lower layer, sum(packetBytes)"
scalar scenarioPRJP1.node[1].wlan.mac 	sentDownPk:count 	15485
attr interpolationmode  none
attr source  packetSentToLower
attr title  "packets sent to lower layer, count"
scalar scenarioPRJP1.node[1].wlan.mac 	sentDownPk:sum(packetBytes) 	9854484
attr interpolationmode  none
attr source  packetSentToLower
attr title  "packets sent to lower layer, sum(packetBytes)"
scalar scenarioPRJP1.node[1].wlan.mac 	rcvdPkFromHL:count 	7126
attr interpolationmode  none
attr source  packetReceivedFromUpper
attr title  "packets received from higher layer, count"
scalar scenarioPRJP1.node[1].wlan.mac 	rcvdPkFromHL:sum(packetBytes) 	5887092
attr interpolationmode  none
attr source  packetReceivedFromUpper
attr title  "packets received from higher layer, sum(packetBytes)"
scalar scenarioPRJP1.node[1].wlan.mac 	passedUpPk:count 	32758
attr interpolationmode  none
attr source  packetSentToUpper
attr title  "packets passed to higher layer, count"
scalar scenarioPRJP1.node[1].wlan.mac 	passedUpPk:sum(packetBytes) 	30325336
attr interpolationmode  none
attr source  packetSentToUpper
attr title  "packets passed to higher layer, sum(packetBytes)"
statistic scenarioPRJP1.node[1].wlan.radio 	radioChannel:histogram
field count 1
field mean 3
field stddev -nan
field sum 3
field sqrsum 9
field min 3
field max 3
attr interpolationmode  sample-hold
attr source  radioChannelChanged
attr title  "Radio channel, histogram"
bin	-INF	0
bin	2	0
bin	3	1
bin	4	0
[...]
attr interpolationmode  none
attr source  packetSentToUpper
attr title  "packets passed to higher layer, count"
scalar scenarioPRJP1.node[79].wlan.mac 	passedUpPk:sum(packetBytes) 	26073156
attr interpolationmode  none
attr source  packetSentToUpper
attr title  "packets passed to higher layer, sum(packetBytes)"
statistic scenarioPRJP1.node[79].wlan.radio 	radioChannel:histogram
field count 1
field mean 3
field stddev -nan
field sum 3
field sqrsum 9
field min 3
field max 3
attr interpolationmode  sample-hold
attr source  radioChannelChanged
attr title  "Radio channel, histogram"
bin	-INF	0
bin	2	0
bin	3	1
bin	4	0
scalar scenarioPRJP1.node[79].wlan.radio 	transmissionState:count 	60408
attr interpolationmode  sample-hold
attr source  transmissionStateChanged
attr title  "Radio transmission state, count"
scalar scenarioPRJP1.node[79].wlan.radio 	receptionState:count 	271958
attr interpolationmode  sample-hold
attr source  receptionStateChanged
attr title  "Radio reception state, count"
scalar scenarioPRJP1.node[79].wlan.radio 	radioMode:count 	30206
attr interpolationmode  sample-hold
attr source  radioModeChanged
attr title  "Radio mode, count"
statistic scenarioPRJP1.node[79].wlan.radio 	symbolErrorRate:histogram
field count 0
field mean -nan
field stddev -nan
field sum 0
field sqrsum 0
field min -nan
field max -nan
attr source  symbolErrorRate
attr title  "Symbol error rate, histogram"
bin	-INF	0
bin	-0.5	0
bin	-0.46666666666667	0
bin	-0.43333333333333	0
bin	-0.4	0
bin	-0.36666666666667	0
bin	-0.33333333333333	0
bin	-0.3	0
bin	-0.26666666666667	0
bin	-0.23333333333333	0
bin	-0.2	0
bin	-0.16666666666667	0
bin	-0.13333333333333	0
bin	-0.1	0
bin	-0.066666666666667	0
bin	-0.033333333333333	0
bin	-6.9388939039072e-18	0
bin	0.033333333333333	0
bin	0.066666666666667	0
bin	0.1	0
bin	0.13333333333333	0
bin	0.16666666666667	0
bin	0.2	0
bin	0.23333333333333	0
bin	0.26666666666667	0
bin	0.3	0
bin	0.33333333333333	0
bin	0.36666666666667	0
bin	0.4	0
bin	0.43333333333333	0
bin	0.46666666666667	0
bin	0.5	0
statistic scenarioPRJP1.node[79].wlan.radio 	bitErrorRate:histogram
field count 0
field mean -nan
field stddev -nan
field sum 0
field sqrsum 0
field min -nan
field max -nan
attr source  bitErrorRate
attr title  "Bit error rate, histogram"
bin	-INF	0
bin	-0.5	0
bin	-0.46666666666667	0
bin	-0.43333333333333	0
bin	-0.4	0
bin	-0.36666666666667	0
bin	-0.33333333333333	0
bin	-0.3	0
bin	-0.26666666666667	0
bin	-0.23333333333333	0
bin	-0.2	0
bin	-0.16666666666667	0
bin	-0.13333333333333	0
bin	-0.1	0
bin	-0.066666666666667	0
bin	-0.033333333333333	0
bin	-6.9388939039072e-18	0
bin	0.033333333333333	0
bin	0.066666666666667	0
bin	0.1	0
bin	0.13333333333333	0
bin	0.16666666666667	0
bin	0.2	0
bin	0.23333333333333	0
bin	0.26666666666667	0
bin	0.3	0
bin	0.33333333333333	0
bin	0.36666666666667	0
bin	0.4	0
bin	0.43333333333333	0
bin	0.46666666666667	0
bin	0.5	0
statistic scenarioPRJP1.node[79].wlan.radio 	packetErrorRate:histogram
field count 103952
field mean 0.4214425339439
field stddev 0.48490855039151
field sum 43809.794288536
field sqrsum 42905.964470963
field min 0
field max 1
attr source  packetErrorRate
attr title  "Packet error rate, histogram"
bin	-INF	0
bin	-0.5	0
bin	-0.43333333333333	0
bin	-0.36666666666667	0
bin	-0.3	0
bin	-0.23333333333333	0
bin	-0.16666666666667	0
bin	-0.1	0
bin	-0.033333333333333	56534
bin	0.033333333333333	1441
bin	0.1	710
bin	0.16666666666667	436
bin	0.23333333333333	388
bin	0.3	313
bin	0.36666666666667	287
bin	0.43333333333333	260
bin	0.5	261
bin	0.56666666666667	270
bin	0.63333333333333	235
bin	0.7	237
bin	0.76666666666667	322
bin	0.83333333333333	337
bin	0.9	489
bin	0.96666666666667	41432
bin	1.0333333333333	0
bin	1.1	0
bin	1.1666666666667	0
bin	1.2333333333333	0
bin	1.3	0
bin	1.3666666666667	0
bin	1.4333333333333	0
bin	1.5	0
statistic scenarioPRJP1.node[79].wlan.radio 	minSNIR:histogram
field count 103952
field mean 560.96012771008
field stddev 9534.9376766758
field sum 58312927.195718
field sqrsum 9483420186099.9
field min 0.00010829744314307
field max 954235.12593707
attr source  minSNIR
attr title  "Min SNIR, histogram"
bin	-INF	0
bin	-41304.74141895	0
bin	-35797.439443268	0
bin	-30290.137467585	0
bin	-24782.835491902	0
bin	-19275.53351622	0
bin	-13768.231540537	0
bin	-8260.9295648541	0
bin	-2753.6275891714	101836
bin	2753.6743865114	1237
bin	8260.9763621941	297
bin	13768.278337877	140
bin	19275.58031356	81
bin	24782.882289242	52
bin	30290.184264925	38
bin	35797.486240608	34
bin	41304.78821629	28
bin	46812.090191973	22
bin	52319.392167656	15
bin	57826.694143339	14
bin	63333.996119021	11
bin	68841.298094704	6
bin	74348.600070387	10
bin	79855.90204607	8
bin	85363.204021752	10
bin	90870.505997435	5
bin	96377.807973118	8
bin	101885.1099488	5
bin	107392.41192448	6
bin	112899.71390017	4
bin	118407.01587585	2
bin	123914.31785153	83
scalar scenarioPRJP1.node[79].lo0.lo 	droppedPkBitError:count 	0
attr interpolationmode  none
attr source  dropPkBitError
attr title  "packets dropped/bit error, count"
scalar scenarioPRJP1.node[79].lo0.lo 	droppedPkBitError:sum(packetBytes) 	0
attr interpolationmode  none
attr source  dropPkBitError
attr title  "packets dropped/bit error, sum(packetBytes)"
scalar scenarioPRJP1.node[79].lo0.lo 	rcvdPkFromHL:count 	7
attr interpolationmode  none
attr source  packetReceivedFromUpper
attr title  "packets received from higher layer, count"
scalar scenarioPRJP1.node[79].lo0.lo 	rcvdPkFromHL:sum(packetBytes) 	392
attr interpolationmode  none
attr source  packetReceivedFromUpper
attr title  "packets received from higher layer, sum(packetBytes)"
scalar scenarioPRJP1.node[79].lo0.lo 	passedUpPk:count 	7
attr interpolationmode  none
attr source  packetSentToUpper
attr title  "packets passed to higher layer, count"
scalar scenarioPRJP1.node[79].lo0.lo 	passedUpPk:sum(packetBytes) 	392
attr interpolationmode  none
attr source  packetSentToUpper
attr title  "packets passed to higher layer, sum(packetBytes)"
scalar scenarioPRJP1.node[99].app 	"Total sent" 	2624
scalar scenarioPRJP1.node[99].app 	"Total received" 	155
scalar scenarioPRJP1.node[99].app 	"Total deleted" 	0
scalar scenarioPRJP1.node[99].app 	dropPk:count 	0
attr interpolationmode  none
attr source  dropPk
attr title  "packets dropped, count"
scalar scenarioPRJP1.node[99].app 	dropPk:sum(packetBytes) 	0
attr interpolationmode  none
attr source  dropPk
attr title  "packets dropped, sum(packetBytes)"
scalar scenarioPRJP1.node[99].app 	outOfOrderPk:count 	0
attr interpolationmode  none
attr source  outOfOrderPk
attr title  "packets received out of order, count"
scalar scenarioPRJP1.node[99].app 	outOfOrderPk:sum(packetBytes) 	0
attr interpolationmode  none
attr source  outOfOrderPk
attr title  "packets received out of order, sum(packetBytes)"
scalar scenarioPRJP1.node[99].app 	rcvdPk:count 	155
attr interpolationmode  none
attr source  rcvdPk
attr title  "packets received, count"
scalar scenarioPRJP1.node[99].app 	rcvdPk:sum(packetBytes) 	79360
attr interpolationmode  none
attr source  rcvdPk
attr title  "packets received, sum(packetBytes)"
statistic scenarioPRJP1.node[99].app 	endToEndDelay:histogram
field count 155
field mean 0.18374910794269
field stddev 0.4745782545934
field sum 28.481111731117
field sqrsum 39.917954912678
field min 0.000945032761
field max 2.786328832773
attr interpolationmode  none
attr source  messageAge(rcvdPk)
attr title  "delay, histogram"
attr unit  s
bin	-INF	0
bin	-1.05420379751	0
bin	-0.9135172868072	0
bin	-0.7728307761044	0
bin	-0.6321442654016	0
bin	-0.4914577546988	0
bin	-0.350771243996	0
bin	-0.2100847332932	0
bin	-0.0693982225904	125
bin	0.0712882881124	10
bin	0.2119747988152	3
bin	0.352661309518	1
bin	0.4933478202208	1
bin	0.6340343309236	0
bin	0.7747208416264	1
bin	0.9154073523292	2
bin	1.056093863032	3
bin	1.1967803737348	2
bin	1.3374668844376	0
bin	1.4781533951404	2
bin	1.6188399058432	0
bin	1.759526416546	0
bin	1.9002129272488	1
bin	2.0408994379516	3
bin	2.1815859486544	0
bin	2.3222724593572	0
bin	2.46295897006	0
bin	2.6036454807628	0
bin	2.7443319914656	1
bin	2.8850185021684	0
bin	3.0257050128712	0
bin	3.166391523574	0
scalar scenarioPRJP1.node[99].app 	sentPk:count 	2624
attr interpolationmode  none
attr source  sentPk
attr title  "packets sent, count"
scalar scenarioPRJP1.node[99].app 	sentPk:sum(packetBytes) 	1343488
attr interpolationmode  none
attr source  sentPk
attr title  "packets sent, sum(packetBytes)"
scalar scenarioPRJP1.node[99].udp 	droppedPkBadChecksum:count 	0
attr interpolationmode  none
attr title  "packets dropped (checksum error), count"
scalar scenarioPRJP1.node[99].udp 	droppedPkWrongPort:count 	0
attr interpolationmode  none
attr title  "packets dropped (wrong port), count"
scalar scenarioPRJP1.node[99].udp 	passedUpPk:count 	155
attr interpolationmode  none
attr title  "packets passed up, count"
scalar scenarioPRJP1.node[99].udp 	rcvdPk:count 	155
attr interpolationmode  none
attr source  rcvdPk
attr title  "packets received, count"
scalar scenarioPRJP1.node[99].udp 	rcvdPk:sum(packetBytes) 	80600
attr interpolationmode  none
attr source  rcvdPk
attr title  "packets received, sum(packetBytes)"
scalar scenarioPRJP1.node[99].udp 	sentPk:count 	2624
attr interpolationmode  none
attr source  sentPk
attr title  "packets sent, count"
scalar scenarioPRJP1.node[99].udp 	sentPk:sum(packetBytes) 	1364480
attr interpolationmode  none
attr source  sentPk
attr title  "packets sent, sum(packetBytes)"
scalar scenarioPRJP1.node[99].networkLayer.arp 	failedARPResolution:count 	181
attr title  "ARP failed resolutions, count"
scalar scenarioPRJP1.node[99].networkLayer.arp 	completedARPResolution:count 	2226
attr title  "ARP completed resolutions, count"
scalar scenarioPRJP1.node[99].networkLayer.arp 	initiatedARPResolution:count 	271
attr title  "ARP initiated resolutions, count"
scalar scenarioPRJP1.node[99].networkLayer.arp 	sentReply:count 	60
attr title  "ARP replies sent, count"
scalar scenarioPRJP1.node[99].networkLayer.arp 	sentReq:count 	694
attr title  "ARP request sent, count"
scalar scenarioPRJP1.node[99].mobility 	startTime 	9.8
scalar scenarioPRJP1.node[99].mobility 	totalTime 	940.2
scalar scenarioPRJP1.node[99].mobility 	stopTime 	950
scalar scenarioPRJP1.node[99].mobility 	minSpeed 	2.4754605363631e-13
scalar scenarioPRJP1.node[99].mobility 	maxSpeed 	16.381916917474
scalar scenarioPRJP1.node[99].mobility 	totalDistance 	8544.4552815922
scalar scenarioPRJP1.node[99].mobility 	totalCO2Emission 	2267.8536402609
scalar scenarioPRJP1.node[99].wlan.mgmt 	dataQueueLen:max 	3
attr interpolationmode  sample-hold
attr title  "data queue length, max"
scalar scenarioPRJP1.node[99].wlan.mgmt 	dataQueueLen:timeavg 	0
attr interpolationmode  sample-hold
attr title  "data queue length, timeavg"
scalar scenarioPRJP1.node[99].wlan.mgmt 	dropPkByQueue:count 	0
attr interpolationmode  none
attr source  dropPkByQueue
attr title  "packets dropped by queue, count"
scalar scenarioPRJP1.node[99].wlan.mgmt 	dropPkByQueue:sum(packetBytes) 	0
attr interpolationmode  none
attr source  dropPkByQueue
attr title  "packets dropped by queue, sum(packetBytes)"
scalar scenarioPRJP1.node[99].wlan.mac 	"number of received packets" 	1234
scalar scenarioPRJP1.node[99].wlan.mac 	"number of collisions" 	51423
scalar scenarioPRJP1.node[99].wlan.mac 	"number of internal collisions" 	1
scalar scenarioPRJP1.node[99].wlan.mac 	"number of retry for AC 0" 	6760
scalar scenarioPRJP1.node[99].wlan.mac 	"number of retry for AC 1" 	44
scalar scenarioPRJP1.node[99].wlan.mac 	"number of retry for AC 2" 	0
scalar scenarioPRJP1.node[99].wlan.mac 	"number of retry for AC 3" 	0
scalar scenarioPRJP1.node[99].wlan.mac 	"sent and received bits" 	43184384
scalar scenarioPRJP1.node[99].wlan.mac 	"sent packet within AC 0" 	818
scalar scenarioPRJP1.node[99].wlan.mac 	"sent packet within AC 1" 	30
scalar scenarioPRJP1.node[99].wlan.mac 	"sent packet within AC 2" 	0
scalar scenarioPRJP1.node[99].wlan.mac 	"sent packet within AC 3" 	0
scalar scenarioPRJP1.node[99].wlan.mac 	"sent in TXOP " 	0
scalar scenarioPRJP1.node[99].wlan.mac 	"sentWithoutRetry AC 0" 	599
scalar scenarioPRJP1.node[99].wlan.mac 	"sentWithoutRetry AC 1" 	23
scalar scenarioPRJP1.node[99].wlan.mac 	"sentWithoutRetry AC 2" 	0
scalar scenarioPRJP1.node[99].wlan.mac 	"sentWithoutRetry AC 3" 	0
scalar scenarioPRJP1.node[99].wlan.mac 	"numGivenUp AC 0" 	1024
scalar scenarioPRJP1.node[99].wlan.mac 	"numGivenUp AC 1" 	5
scalar scenarioPRJP1.node[99].wlan.mac 	"numGivenUp AC 2" 	0
scalar scenarioPRJP1.node[99].wlan.mac 	"numGivenUp AC 3" 	0
scalar scenarioPRJP1.node[99].wlan.mac 	"numDropped AC 0" 	0
scalar scenarioPRJP1.node[99].wlan.mac 	"numDropped AC 1" 	0
scalar scenarioPRJP1.node[99].wlan.mac 	"numDropped AC 2" 	0
scalar scenarioPRJP1.node[99].wlan.mac 	"numDropped AC 3" 	0
scalar scenarioPRJP1.node[99].wlan.mac 	rcvdPkFromLL:count 	123496
attr interpolationmode  none
attr source  packetReceivedFromLower
attr title  "packets received from lower layer, count"
scalar scenarioPRJP1.node[99].wlan.mac 	rcvdPkFromLL:sum(packetBytes) 	78691762
attr interpolationmode  none
attr source  packetReceivedFromLower
attr title  "packets received from lower layer, sum(packetBytes)"
scalar scenarioPRJP1.node[99].wlan.mac 	sentDownPk:count 	15311
attr interpolationmode  none
attr source  packetSentToLower
attr title  "packets sent to lower layer, count"
scalar scenarioPRJP1.node[99].wlan.mac 	sentDownPk:sum(packetBytes) 	9771768
attr interpolationmode  none
attr source  packetSentToLower
attr title  "packets sent to lower layer, sum(packetBytes)"
scalar scenarioPRJP1.node[99].wlan.mac 	rcvdPkFromHL:count 	7274
attr interpolationmode  none
attr source  packetReceivedFromUpper
attr title  "packets received from higher layer, count"
scalar scenarioPRJP1.node[99].wlan.mac 	rcvdPkFromHL:sum(packetBytes) 	5971436
attr interpolationmode  none
attr source  packetReceivedFromUpper
attr title  "packets received from higher layer, sum(packetBytes)"
scalar scenarioPRJP1.node[99].wlan.mac 	passedUpPk:count 	32280
attr interpolationmode  none
attr source  packetSentToUpper
attr title  "packets passed to higher layer, count"
scalar scenarioPRJP1.node[99].wlan.mac 	passedUpPk:sum(packetBytes) 	30399288
attr interpolationmode  none
attr source  packetSentToUpper
attr title  "packets passed to higher layer, sum(packetBytes)"
statistic scenarioPRJP1.node[99].wlan.radio 	radioChannel:histogram
field count 1
field mean 3
field stddev -nan
field sum 3
field sqrsum 9
field min 3
field max 3
attr interpolationmode  sample-hold
attr source  radioChannelChanged
attr title  "Radio channel, histogram"
bin	-INF	0
bin	2	0
bin	3	1
bin	4	0
scalar scenarioPRJP1.node[99].wlan.radio 	transmissionState:count 	61244
attr interpolationmode  sample-hold
attr source  transmissionStateChanged
attr title  "Radio transmission state, count"
scalar scenarioPRJP1.node[99].wlan.radio 	receptionState:count 	313760
attr interpolationmode  sample-hold
attr source  receptionStateChanged
attr title  "Radio reception state, count"
scalar scenarioPRJP1.node[99].wlan.radio 	radioMode:count 	30624
attr interpolationmode  sample-hold
attr source  radioModeChanged
attr title  "Radio mode, count"
statistic scenarioPRJP1.node[99].wlan.radio 	symbolErrorRate:histogram
field count 0
field mean -nan
field stddev -nan
field sum 0
field sqrsum 0
field min -nan
field max -nan
attr source  symbolErrorRate
attr title  "Symbol error rate, histogram"
bin	-INF	0
bin	-0.5	0
bin	-0.46666666666667	0
bin	-0.43333333333333	0
bin	-0.4	0
bin	-0.36666666666667	0
bin	-0.33333333333333	0
bin	-0.3	0
bin	-0.26666666666667	0
bin	-0.23333333333333	0
bin	-0.2	0
bin	-0.16666666666667	0
bin	-0.13333333333333	0
bin	-0.1	0
bin	-0.066666666666667	0
bin	-0.033333333333333	0
bin	-6.9388939039072e-18	0
bin	0.033333333333333	0
bin	0.066666666666667	0
bin	0.1	0
bin	0.13333333333333	0
bin	0.16666666666667	0
bin	0.2	0
bin	0.23333333333333	0
bin	0.26666666666667	0
bin	0.3	0
bin	0.33333333333333	0
bin	0.36666666666667	0
bin	0.4	0
bin	0.43333333333333	0
bin	0.46666666666667	0
bin	0.5	0
statistic scenarioPRJP1.node[99].wlan.radio 	bitErrorRate:histogram
field count 0
field mean -nan
field stddev -nan
field sum 0
field sqrsum 0
field min -nan
field max -nan
attr source  bitErrorRate
attr title  "Bit error rate, histogram"
bin	-INF	0
bin	-0.5	0
bin	-0.46666666666667	0
bin	-0.43333333333333	0
bin	-0.4	0
bin	-0.36666666666667	0
bin	-0.33333333333333	0
bin	-0.3	0
bin	-0.26666666666667	0
bin	-0.23333333333333	0
bin	-0.2	0
bin	-0.16666666666667	0
bin	-0.13333333333333	0
bin	-0.1	0
bin	-0.066666666666667	0
bin	-0.033333333333333	0
bin	-6.9388939039072e-18	0
bin	0.033333333333333	0
bin	0.066666666666667	0
bin	0.1	0
bin	0.13333333333333	0
bin	0.16666666666667	0
bin	0.2	0
bin	0.23333333333333	0
bin	0.26666666666667	0
bin	0.3	0
bin	0.33333333333333	0
bin	0.36666666666667	0
bin	0.4	0
bin	0.43333333333333	0
bin	0.46666666666667	0
bin	0.5	0
statistic scenarioPRJP1.node[99].wlan.radio 	packetErrorRate:histogram
field count 123496
field mean 0.39883530418527
field stddev 0.48144302507157
field sum 49254.564725664
field sqrsum 48269.042587115
field min 0
field max 1
attr source  packetErrorRate
attr title  "Packet error rate, histogram"
bin	-INF	0
bin	-0.5	0
bin	-0.43333333333333	0
bin	-0.36666666666667	0
bin	-0.3	0
bin	-0.23333333333333	0
bin	-0.16666666666667	0
bin	-0.1	0
bin	-0.033333333333333	70305
bin	0.033333333333333	1525
bin	0.1	775
bin	0.16666666666667	558
bin	0.23333333333333	433
bin	0.3	355
bin	0.36666666666667	311
bin	0.43333333333333	285
bin	0.5	262
bin	0.56666666666667	254
bin	0.63333333333333	233
bin	0.7	286
bin	0.76666666666667	299
bin	0.83333333333333	372
bin	0.9	572
bin	0.96666666666667	46671
bin	1.0333333333333	0
bin	1.1	0
bin	1.1666666666667	0
bin	1.2333333333333	0
bin	1.3	0
bin	1.3666666666667	0
bin	1.4333333333333	0
bin	1.5	0
statistic scenarioPRJP1.node[99].wlan.radio 	minSNIR:histogram
field count 123496
field mean 560.21950697798
field stddev 8730.8585389548
field sum 69184868.233753
field sqrsum 9452522090482.3
field min 0.00010318337125884
field max 863806.58760892
attr source  minSNIR
attr title  "Min SNIR, histogram"
bin	-INF	0
bin	-14564.798372738	0
bin	-12622.771600573	0
bin	-10680.744828409	0
bin	-8738.7180562445	0
bin	-6796.69128408	0
bin	-4854.6645119156	0
bin	-2912.6377397511	0
bin	-970.61096758671	118301
bin	971.41580457773	2758
bin	2913.4425767422	748
bin	4855.4693489066	358
bin	6797.4961210711	242
bin	8739.5228932355	173
bin	10681.5496654	130
bin	12623.576437564	96
bin	14565.603209729	68
bin	16507.629981893	48
bin	18449.656754058	44
bin	20391.683526222	41
bin	22333.710298387	34
bin	24275.737070551	41
bin	26217.763842715	29
bin	28159.79061488	23
bin	30101.817387044	15
bin	32043.844159209	16
bin	33985.870931373	19
bin	35927.897703538	11
bin	37869.924475702	10
bin	39811.951247867	20
bin	41753.978020031	8
bin	43696.004792195	263
scalar scenarioPRJP1.node[99].lo0.lo 	droppedPkBitError:count 	0
attr interpolationmode  none
attr source  dropPkBitError
attr title  "packets dropped/bit error, count"
scalar scenarioPRJP1.node[99].lo0.lo 	droppedPkBitError:sum(packetBytes) 	0
attr interpolationmode  none
attr source  dropPkBitError
attr title  "packets dropped/bit error, sum(packetBytes)"
scalar scenarioPRJP1.node[99].lo0.lo 	rcvdPkFromHL:count 	7
attr interpolationmode  none
attr source  packetReceivedFromUpper
attr title  "packets received from higher layer, count"
scalar scenarioPRJP1.node[99].lo0.lo 	rcvdPkFromHL:sum(packetBytes) 	392
attr interpolationmode  none
attr source  packetReceivedFromUpper
attr title  "packets received from higher layer, sum(packetBytes)"
scalar scenarioPRJP1.node[99].lo0.lo 	passedUpPk:count 	7
attr interpolationmode  none
attr source  packetSentToUpper
attr title  "packets passed to higher layer, count"
scalar scenarioPRJP1.node[99].lo0.lo 	passedUpPk:sum(packetBytes) 	392
attr interpolationmode  none
attr source  packetSentToUpper
attr title  "packets passed to higher layer, sum(packetBytes)"
