version 2
run OLSR-ETX-LNS-100n-1-20150729-22:53:25-7746
attr configname OLSR-ETX-LNS-100n
attr datetime 20150729-22:53:25
attr experiment OLSR-ETX-LNS-100n
attr inifile omnetpp.ini
attr iterationvars ""
attr iterationvars2 $repetition=1
attr measurement ""
attr network Prj_Part1_propag.scenarioPRJP1
attr processid 7746
attr repetition 1
attr replication #1
attr resultdir results
attr runnumber 1
attr seedset 1

scalar scenarioPRJP1.node[56].app 	"Total sent" 	366
scalar scenarioPRJP1.node[56].app 	"Total received" 	26
scalar scenarioPRJP1.node[56].app 	"Total deleted" 	0
scalar scenarioPRJP1.node[56].app 	dropPk:count 	0
attr interpolationmode  none
attr source  dropPk
attr title  "packets dropped, count"
scalar scenarioPRJP1.node[56].app 	dropPk:sum(packetBytes) 	0
attr interpolationmode  none
attr source  dropPk
attr title  "packets dropped, sum(packetBytes)"
scalar scenarioPRJP1.node[56].app 	outOfOrderPk:count 	0
attr interpolationmode  none
attr source  outOfOrderPk
attr title  "packets received out of order, count"
scalar scenarioPRJP1.node[56].app 	outOfOrderPk:sum(packetBytes) 	0
attr interpolationmode  none
attr source  outOfOrderPk
attr title  "packets received out of order, sum(packetBytes)"
scalar scenarioPRJP1.node[56].app 	rcvdPk:count 	26
attr interpolationmode  none
attr source  rcvdPk
attr title  "packets received, count"
scalar scenarioPRJP1.node[56].app 	rcvdPk:sum(packetBytes) 	13312
attr interpolationmode  none
attr source  rcvdPk
attr title  "packets received, sum(packetBytes)"
statistic scenarioPRJP1.node[56].app 	endToEndDelay:histogram
field count 26
field mean 0.15423087742073
field stddev 0.33027937537699
field sum 4.010002812939
field sqrsum 3.3455778972846
field min 0.000945072165
field max 1.139234628051
attr interpolationmode  none
attr source  messageAge(rcvdPk)
attr title  "delay, histogram"
attr unit  s
bin	-INF	0
bin	-0.568199705778	0
bin	-0.4923137353856	0
bin	-0.4164277649932	0
bin	-0.3405417946008	0
bin	-0.2646558242084	0
bin	-0.188769853816	0
bin	-0.1128838834236	0
bin	-0.0369979130312	20
bin	0.0388880573612	1
bin	0.1147740277536	0
bin	0.190659998146	1
bin	0.2665459685384	0
bin	0.3424319389308	0
bin	0.4183179093232	0
bin	0.4942038797156	1
bin	0.570089850108	0
bin	0.6459758205004	0
bin	0.7218617908928	1
bin	0.7977477612852	0
bin	0.8736337316776	0
bin	0.94951970207	0
bin	1.0254056724624	1
bin	1.1012916428548	1
bin	1.1771776132472	0
bin	1.2530635836396	0
bin	1.328949554032	0
bin	1.4048355244244	0
bin	1.4807214948168	0
bin	1.5566074652092	0
bin	1.6324934356016	0
bin	1.708379405994	0
scalar scenarioPRJP1.node[56].app 	sentPk:count 	366
attr interpolationmode  none
attr source  sentPk
attr title  "packets sent, count"
scalar scenarioPRJP1.node[56].app 	sentPk:sum(packetBytes) 	187392
attr interpolationmode  none
attr source  sentPk
attr title  "packets sent, sum(packetBytes)"
scalar scenarioPRJP1.node[56].udp 	droppedPkBadChecksum:count 	0
attr interpolationmode  none
attr title  "packets dropped (checksum error), count"
scalar scenarioPRJP1.node[56].udp 	droppedPkWrongPort:count 	0
attr interpolationmode  none
attr title  "packets dropped (wrong port), count"
scalar scenarioPRJP1.node[56].udp 	passedUpPk:count 	26
attr interpolationmode  none
attr title  "packets passed up, count"
scalar scenarioPRJP1.node[56].udp 	rcvdPk:count 	26
attr interpolationmode  none
attr source  rcvdPk
attr title  "packets received, count"
scalar scenarioPRJP1.node[56].udp 	rcvdPk:sum(packetBytes) 	13520
attr interpolationmode  none
attr source  rcvdPk
attr title  "packets received, sum(packetBytes)"
scalar scenarioPRJP1.node[56].udp 	sentPk:count 	366
attr interpolationmode  none
attr source  sentPk
attr title  "packets sent, count"
scalar scenarioPRJP1.node[56].udp 	sentPk:sum(packetBytes) 	190320
attr interpolationmode  none
attr source  sentPk
attr title  "packets sent, sum(packetBytes)"
scalar scenarioPRJP1.node[56].networkLayer.arp 	failedARPResolution:count 	34
attr title  "ARP failed resolutions, count"
scalar scenarioPRJP1.node[56].networkLayer.arp 	completedARPResolution:count 	393
attr title  "ARP completed resolutions, count"
scalar scenarioPRJP1.node[56].networkLayer.arp 	initiatedARPResolution:count 	57
attr title  "ARP initiated resolutions, count"
scalar scenarioPRJP1.node[56].networkLayer.arp 	sentReply:count 	10
attr title  "ARP replies sent, count"
scalar scenarioPRJP1.node[56].networkLayer.arp 	sentReq:count 	143
attr title  "ARP request sent, count"
scalar scenarioPRJP1.node[56].mobility 	startTime 	5
scalar scenarioPRJP1.node[56].mobility 	totalTime 	153.1
scalar scenarioPRJP1.node[56].mobility 	stopTime 	158.2
scalar scenarioPRJP1.node[56].mobility 	minSpeed 	2.475667787115e-13
scalar scenarioPRJP1.node[56].mobility 	maxSpeed 	20.418876227242
scalar scenarioPRJP1.node[56].mobility 	totalDistance 	1484.4963644969
scalar scenarioPRJP1.node[56].mobility 	totalCO2Emission 	484.36921009365
scalar scenarioPRJP1.node[56].wlan.mgmt 	dataQueueLen:max 	0
attr interpolationmode  sample-hold
attr title  "data queue length, max"
scalar scenarioPRJP1.node[56].wlan.mgmt 	dataQueueLen:timeavg 	0
attr interpolationmode  sample-hold
attr title  "data queue length, timeavg"
scalar scenarioPRJP1.node[56].wlan.mgmt 	dropPkByQueue:count 	0
attr interpolationmode  none
attr source  dropPkByQueue
attr title  "packets dropped by queue, count"
scalar scenarioPRJP1.node[56].wlan.mgmt 	dropPkByQueue:sum(packetBytes) 	0
attr interpolationmode  none
attr source  dropPkByQueue
attr title  "packets dropped by queue, sum(packetBytes)"
scalar scenarioPRJP1.node[56].wlan.mac 	"number of received packets" 	102
scalar scenarioPRJP1.node[56].wlan.mac 	"number of collisions" 	5232
scalar scenarioPRJP1.node[56].wlan.mac 	"number of internal collisions" 	0
scalar scenarioPRJP1.node[56].wlan.mac 	"number of retry for AC 0" 	684
scalar scenarioPRJP1.node[56].wlan.mac 	"number of retry for AC 1" 	2
scalar scenarioPRJP1.node[56].wlan.mac 	"number of retry for AC 2" 	0
scalar scenarioPRJP1.node[56].wlan.mac 	"number of retry for AC 3" 	0
scalar scenarioPRJP1.node[56].wlan.mac 	"sent and received bits" 	4521088
scalar scenarioPRJP1.node[56].wlan.mac 	"sent packet within AC 0" 	56
scalar scenarioPRJP1.node[56].wlan.mac 	"sent packet within AC 1" 	4
scalar scenarioPRJP1.node[56].wlan.mac 	"sent packet within AC 2" 	0
scalar scenarioPRJP1.node[56].wlan.mac 	"sent packet within AC 3" 	0
scalar scenarioPRJP1.node[56].wlan.mac 	"sent in TXOP " 	0
scalar scenarioPRJP1.node[56].wlan.mac 	"sentWithoutRetry AC 0" 	32
scalar scenarioPRJP1.node[56].wlan.mac 	"sentWithoutRetry AC 1" 	3
scalar scenarioPRJP1.node[56].wlan.mac 	"sentWithoutRetry AC 2" 	0
scalar scenarioPRJP1.node[56].wlan.mac 	"sentWithoutRetry AC 3" 	0
scalar scenarioPRJP1.node[56].wlan.mac 	"numGivenUp AC 0" 	102
scalar scenarioPRJP1.node[56].wlan.mac 	"numGivenUp AC 1" 	0
scalar scenarioPRJP1.node[56].wlan.mac 	"numGivenUp AC 2" 	0
scalar scenarioPRJP1.node[56].wlan.mac 	"numGivenUp AC 3" 	0
scalar scenarioPRJP1.node[56].wlan.mac 	"numDropped AC 0" 	0
scalar scenarioPRJP1.node[56].wlan.mac 	"numDropped AC 1" 	0
scalar scenarioPRJP1.node[56].wlan.mac 	"numDropped AC 2" 	0
scalar scenarioPRJP1.node[56].wlan.mac 	"numDropped AC 3" 	0
scalar scenarioPRJP1.node[56].wlan.mac 	rcvdPkFromLL:count 	13749
attr interpolationmode  none
attr source  packetReceivedFromLower
attr title  "packets received from lower layer, count"
scalar scenarioPRJP1.node[56].wlan.mac 	rcvdPkFromLL:sum(packetBytes) 	8632978
attr interpolationmode  none
attr source  packetReceivedFromLower
attr title  "packets received from lower layer, sum(packetBytes)"
scalar scenarioPRJP1.node[56].wlan.mac 	sentDownPk:count 	1599
attr interpolationmode  none
attr source  packetSentToLower
attr title  "packets sent to lower layer, count"
scalar scenarioPRJP1.node[56].wlan.mac 	sentDownPk:sum(packetBytes) 	992348
attr interpolationmode  none
attr source  packetSentToLower
attr title  "packets sent to lower layer, sum(packetBytes)"
scalar scenarioPRJP1.node[56].wlan.mac 	rcvdPkFromHL:count 	811
attr interpolationmode  none
attr source  packetReceivedFromUpper
attr title  "packets received from higher layer, count"
scalar scenarioPRJP1.node[56].wlan.mac 	rcvdPkFromHL:sum(packetBytes) 	620304
attr interpolationmode  none
attr source  packetReceivedFromUpper
attr title  "packets received from higher layer, sum(packetBytes)"
scalar scenarioPRJP1.node[56].wlan.mac 	passedUpPk:count 	4223
attr interpolationmode  none
attr source  packetSentToUpper
attr title  "packets passed to higher layer, count"
scalar scenarioPRJP1.node[56].wlan.mac 	passedUpPk:sum(packetBytes) 	3796124
attr interpolationmode  none
attr source  packetSentToUpper
attr title  "packets passed to higher layer, sum(packetBytes)"
statistic scenarioPRJP1.node[56].wlan.radio 	radioChannel:histogram
field count 1
field mean 3
field stddev -nan
field sum 3
field sqrsum 9
field min 3
field max 3
attr interpolationmode  sample-hold
attr source  radioChannelChanged
attr title  "Radio channel, histogram"
bin	-INF	0
bin	2	0
bin	3	1
bin	4	0
scalar scenarioPRJP1.node[56].wlan.radio 	transmissionState:count 	6396
attr interpolationmode  sample-hold
attr source  transmissionStateChanged
attr title  "Radio transmission state, count"
scalar scenarioPRJP1.node[56].wlan.radio 	receptionState:count 	32953
attr interpolationmode  sample-hold
attr source  receptionStateChanged
attr title  "Radio reception state, count"
scalar scenarioPRJP1.node[56].wlan.radio 	radioMode:count 	3200
attr interpolationmode  sample-hold
attr source  radioModeChanged
attr title  "Radio mode, count"
statistic scenarioPRJP1.node[56].wlan.radio 	symbolErrorRate:histogram
field count 0
field mean -nan
field stddev -nan
field sum 0
field sqrsum 0
field min -nan
field max -nan
attr source  symbolErrorRate
attr title  "Symbol error rate, histogram"
bin	-INF	0
bin	-0.5	0
bin	-0.46666666666667	0
bin	-0.43333333333333	0
bin	-0.4	0
bin	-0.36666666666667	0
bin	-0.33333333333333	0
bin	-0.3	0
bin	-0.26666666666667	0
bin	-0.23333333333333	0
bin	-0.2	0
bin	-0.16666666666667	0
bin	-0.13333333333333	0
bin	-0.1	0
bin	-0.066666666666667	0
bin	-0.033333333333333	0
bin	0	0
bin	0.033333333333333	0
bin	0.066666666666667	0
bin	0.1	0
bin	0.13333333333333	0
bin	0.16666666666667	0
bin	0.2	0
bin	0.23333333333333	0
bin	0.26666666666667	0
bin	0.3	0
bin	0.33333333333333	0
bin	0.36666666666667	0
bin	0.4	0
bin	0.43333333333333	0
bin	0.46666666666667	0
bin	0.5	0
statistic scenarioPRJP1.node[56].wlan.radio 	bitErrorRate:histogram
field count 0
field mean -nan
field stddev -nan
field sum 0
field sqrsum 0
field min -nan
field max -nan
attr source  bitErrorRate
attr title  "Bit error rate, histogram"
bin	-INF	0
bin	-0.5	0
bin	-0.46666666666667	0
bin	-0.43333333333333	0
bin	-0.4	0
bin	-0.36666666666667	0
bin	-0.33333333333333	0
bin	-0.3	0
bin	-0.26666666666667	0
bin	-0.23333333333333	0
bin	-0.2	0
bin	-0.16666666666667	0
bin	-0.13333333333333	0
bin	-0.1	0
bin	-0.066666666666667	0
bin	-0.033333333333333	0
bin	0	0
bin	0.033333333333333	0
bin	0.066666666666667	0
bin	0.1	0
bin	0.13333333333333	0
bin	0.16666666666667	0
bin	0.2	0
bin	0.23333333333333	0
bin	0.26666666666667	0
bin	0.3	0
bin	0.33333333333333	0
bin	0.36666666666667	0
bin	0.4	0
bin	0.43333333333333	0
bin	0.46666666666667	0
bin	0.5	0
statistic scenarioPRJP1.node[56].wlan.radio 	packetErrorRate:histogram
field count 13749
field mean 0.35957298872567
field stddev 0.47053832577282
field sum 4943.7690219893
field sqrsum 4821.5398354641
field min 0
field max 1
attr source  packetErrorRate
attr title  "Packet error rate, histogram"
bin	-INF	0
bin	-0.5	0
bin	-0.43333333333333	0
bin	-0.36666666666667	0
bin	-0.3	0
bin	-0.23333333333333	0
bin	-0.16666666666667	0
bin	-0.1	0
bin	-0.033333333333333	8318
bin	0.033333333333333	192
bin	0.1	101
bin	0.16666666666667	63
bin	0.23333333333333	51
bin	0.3	38
bin	0.36666666666667	37
bin	0.43333333333333	33
bin	0.5	42
bin	0.56666666666667	31
bin	0.63333333333333	39
bin	0.7	34
bin	0.76666666666667	32
bin	0.83333333333333	50
bin	0.9	60
bin	0.96666666666667	4628
bin	1.0333333333333	0
bin	1.1	0
bin	1.1666666666667	0
bin	1.2333333333333	0
bin	1.3	0
bin	1.3666666666667	0
bin	1.4333333333333	0
bin	1.5	0
statistic scenarioPRJP1.node[56].wlan.radio 	minSNIR:histogram
field count 13749
field mean 303.5093782217
field stddev 4088.7001386615
field sum 4172950.4411702
field sqrsum 231098290984.6
field min 0.0002674173090609
field max 366883.80098739
attr source  minSNIR
attr title  "Min SNIR, histogram"
bin	-INF	0
bin	-9556.5265988996	0
bin	-8282.3203346794	0
bin	-7008.1140704592	0
bin	-5733.907806239	0
bin	-4459.7015420188	0
bin	-3185.4952777986	0
bin	-1911.2890135784	0
bin	-637.08274935822	13046
bin	637.12351486198	388
bin	1911.3297790822	119
bin	3185.5360433024	38
bin	4459.7423075226	26
bin	5733.9485717428	24
bin	7008.154835963	18
bin	8282.3611001832	15
bin	9556.5673644034	7
bin	10830.773628624	5
bin	12104.979892844	11
bin	13379.186157064	6
bin	14653.392421284	3
bin	15927.598685504	2
bin	17201.804949725	8
bin	18476.011213945	3
bin	19750.217478165	4
bin	21024.423742385	2
bin	22298.630006605	1
bin	23572.836270826	3
bin	24847.042535046	1
bin	26121.248799266	3
bin	27395.455063486	1
bin	28669.661327706	15
scalar scenarioPRJP1.node[56].lo0.lo 	droppedPkBitError:count 	0
attr interpolationmode  none
attr source  dropPkBitError
attr title  "packets dropped/bit error, count"
scalar scenarioPRJP1.node[56].lo0.lo 	droppedPkBitError:sum(packetBytes) 	0
attr interpolationmode  none
attr source  dropPkBitError
attr title  "packets dropped/bit error, sum(packetBytes)"
scalar scenarioPRJP1.node[56].lo0.lo 	rcvdPkFromHL:count 	0
attr interpolationmode  none
attr source  packetReceivedFromUpper
attr title  "packets received from higher layer, count"
scalar scenarioPRJP1.node[56].lo0.lo 	rcvdPkFromHL:sum(packetBytes) 	0
attr interpolationmode  none
attr source  packetReceivedFromUpper
attr title  "packets received from higher layer, sum(packetBytes)"
scalar scenarioPRJP1.node[56].lo0.lo 	passedUpPk:count 	0
attr interpolationmode  none
attr source  packetSentToUpper
attr title  "packets passed to higher layer, count"
scalar scenarioPRJP1.node[56].lo0.lo 	passedUpPk:sum(packetBytes) 	0
attr interpolationmode  none
attr source  packetSentToUpper
attr title  "packets passed to higher layer, sum(packetBytes)"
scalar scenarioPRJP1.node[97].app 	"Total sent" 	372
scalar scenarioPRJP1.node[97].app 	"Total received" 	12
scalar scenarioPRJP1.node[97].app 	"Total deleted" 	0
scalar scenarioPRJP1.node[97].app 	dropPk:count 	0
attr interpolationmode  none
attr source  dropPk
attr title  "packets dropped, count"
scalar scenarioPRJP1.node[97].app 	dropPk:sum(packetBytes) 	0
attr interpolationmode  none
attr source  dropPk
attr title  "packets dropped, sum(packetBytes)"
scalar scenarioPRJP1.node[97].app 	outOfOrderPk:count 	0
attr interpolationmode  none
attr source  outOfOrderPk
attr title  "packets received out of order, count"
scalar scenarioPRJP1.node[97].app 	outOfOrderPk:sum(packetBytes) 	0
attr interpolationmode  none
attr source  outOfOrderPk
attr title  "packets received out of order, sum(packetBytes)"
scalar scenarioPRJP1.node[97].app 	rcvdPk:count 	12
attr interpolationmode  none
attr source  rcvdPk
attr title  "packets received, count"
scalar scenarioPRJP1.node[97].app 	rcvdPk:sum(packetBytes) 	6144
attr interpolationmode  none
attr source  rcvdPk
attr title  "packets received, sum(packetBytes)"
statistic scenarioPRJP1.node[97].app 	endToEndDelay:histogram
field count 12
field mean 0.45894184878192
field stddev 0.71457118848994
field sum 5.507302185383
field sqrsum 8.1442632643795
field min 0.001269644568
field max 2.017329856918
attr interpolationmode  none
attr source  messageAge(rcvdPk)
attr title  "delay, histogram"
attr unit  s
bin	-INF	0
bin	-1.006760461607	0
bin	-0.87235644745033	0
bin	-0.73795243329367	0
bin	-0.603548419137	0
bin	-0.46914440498033	0
bin	-0.33474039082367	0
bin	-0.200336376667	0
bin	-0.065932362510333	8
bin	0.068471651646333	0
bin	0.202875665803	0
bin	0.33727967995967	0
bin	0.47168369411633	0
bin	0.606087708273	0
bin	0.74049172242967	1
bin	0.87489573658633	0
bin	1.009299750743	1
bin	1.1437037648997	0
bin	1.2781077790563	0
bin	1.412511793213	0
bin	1.5469158073697	1
bin	1.6813198215263	0
bin	1.815723835683	0
bin	1.9501278498397	1
bin	2.0845318639963	0
bin	2.218935878153	0
bin	2.3533398923097	0
bin	2.4877439064663	0
bin	2.622147920623	0
bin	2.7565519347797	0
bin	2.8909559489363	0
bin	3.025359963093	0
scalar scenarioPRJP1.node[97].app 	sentPk:count 	372
attr interpolationmode  none
attr source  sentPk
attr title  "packets sent, count"
scalar scenarioPRJP1.node[97].app 	sentPk:sum(packetBytes) 	190464
attr interpolationmode  none
attr source  sentPk
attr title  "packets sent, sum(packetBytes)"
scalar scenarioPRJP1.node[97].udp 	droppedPkBadChecksum:count 	0
attr interpolationmode  none
attr title  "packets dropped (checksum error), count"
scalar scenarioPRJP1.node[97].udp 	droppedPkWrongPort:count 	0
attr interpolationmode  none
attr title  "packets dropped (wrong port), count"
scalar scenarioPRJP1.node[97].udp 	passedUpPk:count 	12
attr interpolationmode  none
attr title  "packets passed up, count"
scalar scenarioPRJP1.node[97].udp 	rcvdPk:count 	12
attr interpolationmode  none
attr source  rcvdPk
attr title  "packets received, count"
scalar scenarioPRJP1.node[97].udp 	rcvdPk:sum(packetBytes) 	6240
attr interpolationmode  none
attr source  rcvdPk
attr title  "packets received, sum(packetBytes)"
scalar scenarioPRJP1.node[97].udp 	sentPk:count 	372
attr interpolationmode  none
attr source  sentPk
attr title  "packets sent, count"
scalar scenarioPRJP1.node[97].udp 	sentPk:sum(packetBytes) 	193440
attr interpolationmode  none
attr source  sentPk
attr title  "packets sent, sum(packetBytes)"
scalar scenarioPRJP1.node[97].networkLayer.arp 	failedARPResolution:count 	20
attr title  "ARP failed resolutions, count"
scalar scenarioPRJP1.node[97].networkLayer.arp 	completedARPResolution:count 	326
attr title  "ARP completed resolutions, count"
scalar scenarioPRJP1.node[97].networkLayer.arp 	initiatedARPResolution:count 	39
attr title  "ARP initiated resolutions, count"
scalar scenarioPRJP1.node[97].networkLayer.arp 	sentReply:count 	8
attr title  "ARP replies sent, count"
scalar scenarioPRJP1.node[97].networkLayer.arp 	sentReq:count 	97
attr title  "ARP request sent, count"
scalar scenarioPRJP1.node[97].mobility 	startTime 	9.8
scalar scenarioPRJP1.node[97].mobility 	totalTime 	151.6
scalar scenarioPRJP1.node[97].mobility 	stopTime 	161.5
scalar scenarioPRJP1.node[97].mobility 	minSpeed 	2.4766130754548e-13
scalar scenarioPRJP1.node[97].mobility 	maxSpeed 	16.71308651381
scalar scenarioPRJP1.node[97].mobility 	totalDistance 	1484.5026524604
scalar scenarioPRJP1.node[97].mobility 	totalCO2Emission 	425.40780941594
scalar scenarioPRJP1.node[97].wlan.mgmt 	dataQueueLen:max 	2
attr interpolationmode  sample-hold
attr title  "data queue length, max"
scalar scenarioPRJP1.node[97].wlan.mgmt 	dataQueueLen:timeavg 	0
attr interpolationmode  sample-hold
attr title  "data queue length, timeavg"
scalar scenarioPRJP1.node[97].wlan.mgmt 	dropPkByQueue:count 	0
attr interpolationmode  none
attr source  dropPkByQueue
attr title  "packets dropped by queue, count"
scalar scenarioPRJP1.node[97].wlan.mgmt 	dropPkByQueue:sum(packetBytes) 	0
attr interpolationmode  none
attr source  dropPkByQueue
attr title  "packets dropped by queue, sum(packetBytes)"
scalar scenarioPRJP1.node[97].wlan.mac 	"number of received packets" 	112
scalar scenarioPRJP1.node[97].wlan.mac 	"number of collisions" 	5038
scalar scenarioPRJP1.node[97].wlan.mac 	"number of internal collisions" 	0
scalar scenarioPRJP1.node[97].wlan.mac 	"number of retry for AC 0" 	743
scalar scenarioPRJP1.node[97].wlan.mac 	"number of retry for AC 1" 	6
scalar scenarioPRJP1.node[97].wlan.mac 	"number of retry for AC 2" 	0
scalar scenarioPRJP1.node[97].wlan.mac 	"number of retry for AC 3" 	0
scalar scenarioPRJP1.node[97].wlan.mac 	"sent and received bits" 	4408800
scalar scenarioPRJP1.node[97].wlan.mac 	"sent packet within AC 0" 	95
scalar scenarioPRJP1.node[97].wlan.mac 	"sent packet within AC 1" 	3
scalar scenarioPRJP1.node[97].wlan.mac 	"sent packet within AC 2" 	0
scalar scenarioPRJP1.node[97].wlan.mac 	"sent packet within AC 3" 	0
scalar scenarioPRJP1.node[97].wlan.mac 	"sent in TXOP " 	0
scalar scenarioPRJP1.node[97].wlan.mac 	"sentWithoutRetry AC 0" 	68
scalar scenarioPRJP1.node[97].wlan.mac 	"sentWithoutRetry AC 1" 	3
scalar scenarioPRJP1.node[97].wlan.mac 	"sentWithoutRetry AC 2" 	0
scalar scenarioPRJP1.node[97].wlan.mac 	"sentWithoutRetry AC 3" 	0
scalar scenarioPRJP1.node[97].wlan.mac 	"numGivenUp AC 0" 	114
scalar scenarioPRJP1.node[97].wlan.mac 	"numGivenUp AC 1" 	1
scalar scenarioPRJP1.node[97].wlan.mac 	"numGivenUp AC 2" 	0
scalar scenarioPRJP1.node[97].wlan.mac 	"numGivenUp AC 3" 	0
scalar scenarioPRJP1.node[97].wlan.mac 	"numDropped AC 0" 	0
scalar scenarioPRJP1.node[97].wlan.mac 	"numDropped AC 1" 	0
scalar scenarioPRJP1.node[97].wlan.mac 	"numDropped AC 2" 	0
scalar scenarioPRJP1.node[97].wlan.mac 	"numDropped AC 3" 	0
scalar scenarioPRJP1.node[97].wlan.mac 	rcvdPkFromLL:count 	11430
attr interpolationmode  none
attr source  packetReceivedFromLower
attr title  "packets received from lower layer, count"
scalar scenarioPRJP1.node[97].wlan.mac 	rcvdPkFromLL:sum(packetBytes) 	7260692
attr interpolationmode  none
attr source  packetReceivedFromLower
attr title  "packets received from lower layer, sum(packetBytes)"
scalar scenarioPRJP1.node[97].wlan.mac 	sentDownPk:count 	1644
attr interpolationmode  none
attr source  packetSentToLower
attr title  "packets sent to lower layer, count"
scalar scenarioPRJP1.node[97].wlan.mac 	sentDownPk:sum(packetBytes) 	1023904
attr interpolationmode  none
attr source  packetSentToLower
attr title  "packets sent to lower layer, sum(packetBytes)"
scalar scenarioPRJP1.node[97].wlan.mac 	rcvdPkFromHL:count 	783
attr interpolationmode  none
attr source  packetReceivedFromUpper
attr title  "packets received from higher layer, count"
scalar scenarioPRJP1.node[97].wlan.mac 	rcvdPkFromHL:sum(packetBytes) 	613784
attr interpolationmode  none
attr source  packetReceivedFromUpper
attr title  "packets received from higher layer, sum(packetBytes)"
scalar scenarioPRJP1.node[97].wlan.mac 	passedUpPk:count 	3379
attr interpolationmode  none
attr source  packetSentToUpper
attr title  "packets passed to higher layer, count"
scalar scenarioPRJP1.node[97].wlan.mac 	passedUpPk:sum(packetBytes) 	3039988
attr interpolationmode  none
attr source  packetSentToUpper
attr title  "packets passed to higher layer, sum(packetBytes)"
statistic scenarioPRJP1.node[97].wlan.radio 	radioChannel:histogram
field count 1
field mean 3
field stddev -nan
field sum 3
field sqrsum 9
field min 3
field max 3
attr interpolationmode  sample-hold
attr source  radioChannelChanged
attr title  "Radio channel, histogram"
bin	-INF	0
bin	2	0
bin	3	1
bin	4	0
scalar scenarioPRJP1.node[97].wlan.radio 	transmissionState:count 	6576
attr interpolationmode  sample-hold
attr source  transmissionStateChanged
attr title  "Radio transmission state, count"
scalar scenarioPRJP1.node[97].wlan.radio 	receptionState:count 	29379
attr interpolationmode  sample-hold
attr source  receptionStateChanged
attr title  "Radio reception state, count"
scalar scenarioPRJP1.node[97].wlan.radio 	radioMode:count 	3290
attr interpolationmode  sample-hold
attr source  radioModeChanged
attr title  "Radio mode, count"
statistic scenarioPRJP1.node[97].wlan.radio 	symbolErrorRate:histogram
field count 0
field mean -nan
field stddev -nan
field sum 0
field sqrsum 0
field min -nan
field max -nan
attr source  symbolErrorRate
attr title  "Symbol error rate, histogram"
bin	-INF	0
bin	-0.5	0
bin	-0.46666666666667	0
bin	-0.43333333333333	0
bin	-0.4	0
bin	-0.36666666666667	0
bin	-0.33333333333333	0
bin	-0.3	0
bin	-0.26666666666667	0
bin	-0.23333333333333	0
bin	-0.2	0
bin	-0.16666666666667	0
bin	-0.13333333333333	0
bin	-0.1	0
bin	-0.066666666666667	0
bin	-0.033333333333333	0
bin	0	0
bin	0.033333333333333	0
bin	0.066666666666667	0
bin	0.1	0
bin	0.13333333333333	0
bin	0.16666666666667	0
bin	0.2	0
bin	0.23333333333333	0
bin	0.26666666666667	0
bin	0.3	0
bin	0.33333333333333	0
bin	0.36666666666667	0
bin	0.4	0
bin	0.43333333333333	0
bin	0.46666666666667	0
bin	0.5	0
statistic scenarioPRJP1.node[97].wlan.radio 	bitErrorRate:histogram
field count 0
field mean -nan
field stddev -nan
field sum 0
field sqrsum 0
field min -nan
field max -nan
attr source  bitErrorRate
attr title  "Bit error rate, histogram"
bin	-INF	0
bin	-0.5	0
bin	-0.46666666666667	0
bin	-0.43333333333333	0
bin	-0.4	0
bin	-0.36666666666667	0
bin	-0.33333333333333	0
bin	-0.3	0
bin	-0.26666666666667	0
bin	-0.23333333333333	0
bin	-0.2	0
bin	-0.16666666666667	0
bin	-0.13333333333333	0
bin	-0.1	0
bin	-0.066666666666667	0
bin	-0.033333333333333	0
bin	0	0
bin	0.033333333333333	0
bin	0.066666666666667	0
bin	0.1	0
bin	0.13333333333333	0
bin	0.16666666666667	0
bin	0.2	0
bin	0.23333333333333	0
bin	0.26666666666667	0
bin	0.3	0
bin	0.33333333333333	0
bin	0.36666666666667	0
bin	0.4	0
bin	0.43333333333333	0
bin	0.46666666666667	0
bin	0.5	0
statistic scenarioPRJP1.node[97].wlan.radio 	packetErrorRate:histogram
field count 11430
field mean 0.41656126493106
field stddev 0.48271837959289
field sum 4761.295258162
field sqrsum 4646.5228569995
field min 0
field max 1
attr source  packetErrorRate
attr title  "Packet error rate, histogram"
bin	-INF	0
bin	-0.00095841781991679	0
bin	-0.00083062877726122	0
bin	-0.00070283973460565	0
bin	-0.00057505069195007	0
bin	-0.0004472616492945	0
bin	-0.00031947260663893	0
bin	-0.00019168356398336	0
bin	-6.3894521327786e-05	5398
bin	6.3894521327786e-05	125
bin	0.00019168356398336	66
bin	0.00031947260663893	38
bin	0.0004472616492945	36
bin	0.00057505069195007	17
bin	0.00070283973460565	30
bin	0.00083062877726122	21
bin	0.00095841781991679	12
bin	0.0010862068625724	18
bin	0.0012139959052279	11
bin	0.0013417849478835	11
bin	0.0014695739905391	13
bin	0.0015973630331947	17
bin	0.0017251520758502	4
bin	0.0018529411185058	12
bin	0.0019807301611614	5
bin	0.0021085192038169	6
bin	0.0022363082464725	9
bin	0.0023640972891281	8
bin	0.0024918863317837	4
bin	0.0026196753744392	5
bin	0.0027474644170948	7
bin	0.0028752534597504	5557
statistic scenarioPRJP1.node[97].wlan.radio 	minSNIR:histogram
field count 11430
field mean 688.0127099889
field stddev 12127.688410281
field sum 7863985.2751732
field sqrsum 1686397284196
field min 0.00029297969746597
field max 747884.98958247
attr source  minSNIR
attr title  "Min SNIR, histogram"
bin	-INF	0
bin	-7575.5027362077	0
bin	-6565.0224473955	0
bin	-5554.5421585832	0
bin	-4544.061869771	0
bin	-3533.5815809588	0
bin	-2523.1012921466	0
bin	-1512.6210033343	0
bin	-502.14071452211	10545
bin	508.33957429011	435
bin	1518.8198631023	142
bin	2529.3001519146	84
bin	3539.7804407268	53
bin	4550.260729539	25
bin	5560.7410183512	21
bin	6571.2213071635	18
bin	7581.7015959757	18
bin	8592.1818847879	11
bin	9602.6621736002	4
bin	10613.142462412	5
bin	11623.622751225	8
bin	12634.103040037	7
bin	13644.583328849	2
bin	14655.063617661	4
bin	15665.543906474	2
bin	16676.024195286	2
bin	17686.504484098	0
bin	18696.98477291	1
bin	19707.465061722	3
bin	20717.945350535	3
bin	21728.425639347	1
bin	22738.905928159	36
scalar scenarioPRJP1.node[97].lo0.lo 	droppedPkBitError:count 	0
attr interpolationmode  none
attr source  dropPkBitError
attr title  "packets dropped/bit error, count"
scalar scenarioPRJP1.node[97].lo0.lo 	droppedPkBitError:sum(packetBytes) 	0
attr interpolationmode  none
attr source  dropPkBitError
attr title  "packets dropped/bit error, sum(packetBytes)"
scalar scenarioPRJP1.node[97].lo0.lo 	rcvdPkFromHL:count 	1
attr interpolationmode  none
attr source  packetReceivedFromUpper
attr title  "packets received from higher layer, count"
scalar scenarioPRJP1.node[97].lo0.lo 	rcvdPkFromHL:sum(packetBytes) 	56
attr interpolationmode  none
attr source  packetReceivedFromUpper
attr title  "packets received from higher layer, sum(packetBytes)"
scalar scenarioPRJP1.node[97].lo0.lo 	passedUpPk:count 	1
attr interpolationmode  none
attr source  packetSentToUpper
attr title  "packets passed to higher layer, count"
scalar scenarioPRJP1.node[97].lo0.lo 	passedUpPk:sum(packetBytes) 	56
attr interpolationmode  none
attr source  packetSentToUpper
attr title  "packets passed to higher layer, sum(packetBytes)"
scalar scenarioPRJP1.node[55].app 	"Total sent" 	373
scalar scenarioPRJP1.node[55].app 	"Total received" 	31
scalar scenarioPRJP1.node[55].app 	"Total deleted" 	0
scalar scenarioPRJP1.node[55].app 	dropPk:count 	0
attr interpolationmode  none
attr source  dropPk
attr title  "packets dropped, count"
scalar scenarioPRJP1.node[55].app 	dropPk:sum(packetBytes) 	0
attr interpolationmode  none
attr source  dropPk
attr title  "packets dropped, sum(packetBytes)"
scalar scenarioPRJP1.node[55].app 	outOfOrderPk:count 	0
attr interpolationmode  none
attr source  outOfOrderPk
attr title  "packets received out of order, count"
scalar scenarioPRJP1.node[55].app 	outOfOrderPk:sum(packetBytes) 	0
attr interpolationmode  none
attr source  outOfOrderPk
attr title  "packets received out of order, sum(packetBytes)"
scalar scenarioPRJP1.node[55].app 	rcvdPk:count 	31
attr interpolationmode  none
attr source  rcvdPk
attr title  "packets received, count"
scalar scenarioPRJP1.node[55].app 	rcvdPk:sum(packetBytes) 	15872
attr interpolationmode  none
attr source  rcvdPk
attr title  "packets received, sum(packetBytes)"
statistic scenarioPRJP1.node[55].app 	endToEndDelay:histogram
field count 31
field mean 0.23873239023935
field stddev 0.65043959651401
field sum 7.40070409742
field sqrsum 14.45893784003
field min 0.000984023072
field max 2.268767454099
attr interpolationmode  none
attr source  messageAge(rcvdPk)
attr title  "delay, histogram"
attr unit  s
bin	-INF	0
bin	-1.1329076924415	0
bin	-0.98172213037303	0
bin	-0.83053656830457	0
bin	-0.6793510062361	0
bin	-0.52816544416763	0
bin	-0.37697988209917	0
bin	-0.2257943200307	0
bin	-0.074608757962233	25
bin	0.076576804106234	2
bin	0.2277623661747	1
bin	0.37894792824317	0
bin	0.53013349031163	0
bin	0.6813190523801	0
bin	0.83250461444857	0
bin	0.98369017651703	0
bin	1.1348757385855	0
bin	1.286061300654	0
bin	1.4372468627224	0
bin	1.5884324247909	0
bin	1.7396179868594	0
bin	1.8908035489278	1
bin	2.0419891109963	0
bin	2.1931746730648	2
bin	2.3443602351332	0
bin	2.4955457972017	0
bin	2.6467313592702	0
bin	2.7979169213386	0
bin	2.9491024834071	0
bin	3.1002880454756	0
bin	3.251473607544	0
bin	3.4026591696125	0
scalar scenarioPRJP1.node[55].app 	sentPk:count 	373
attr interpolationmode  none
attr source  sentPk
attr title  "packets sent, count"
scalar scenarioPRJP1.node[55].app 	sentPk:sum(packetBytes) 	190976
attr interpolationmode  none
attr source  sentPk
attr title  "packets sent, sum(packetBytes)"
scalar scenarioPRJP1.node[55].udp 	droppedPkBadChecksum:count 	0
attr interpolationmode  none
attr title  "packets dropped (checksum error), count"
scalar scenarioPRJP1.node[55].udp 	droppedPkWrongPort:count 	0
attr interpolationmode  none
attr title  "packets dropped (wrong port), count"
scalar scenarioPRJP1.node[55].udp 	passedUpPk:count 	31
attr interpolationmode  none
attr title  "packets passed up, count"
scalar scenarioPRJP1.node[55].udp 	rcvdPk:count 	31
attr interpolationmode  none
attr source  rcvdPk
attr title  "packets received, count"
scalar scenarioPRJP1.node[55].udp 	rcvdPk:sum(packetBytes) 	16120
attr interpolationmode  none
attr source  rcvdPk
attr title  "packets received, sum(packetBytes)"
scalar scenarioPRJP1.node[55].udp 	sentPk:count 	373
attr interpolationmode  none
attr source  sentPk
attr title  "packets sent, count"
scalar scenarioPRJP1.node[55].udp 	sentPk:sum(packetBytes) 	193960
attr interpolationmode  none
attr source  sentPk
attr title  "packets sent, sum(packetBytes)"
scalar scenarioPRJP1.node[55].networkLayer.arp 	failedARPResolution:count 	27
attr title  "ARP failed resolutions, count"
scalar scenarioPRJP1.node[55].networkLayer.arp 	completedARPResolution:count 	497
attr title  "ARP completed resolutions, count"
scalar scenarioPRJP1.node[55].networkLayer.arp 	initiatedARPResolution:count 	46
attr title  "ARP initiated resolutions, count"
scalar scenarioPRJP1.node[55].networkLayer.arp 	sentReply:count 	8
attr title  "ARP replies sent, count"
scalar scenarioPRJP1.node[55].networkLayer.arp 	sentReq:count 	112
attr title  "ARP request sent, count"
scalar scenarioPRJP1.node[55].mobility 	startTime 	4.9
scalar scenarioPRJP1.node[55].mobility 	totalTime 	156.9
scalar scenarioPRJP1.node[55].mobility 	stopTime 	161.9
scalar scenarioPRJP1.node[55].mobility 	minSpeed 	2.4779427958737e-13
scalar scenarioPRJP1.node[55].mobility 	maxSpeed 	18.393203952817
scalar scenarioPRJP1.node[55].mobility 	totalDistance 	1452.5133371637
scalar scenarioPRJP1.node[55].mobility 	totalCO2Emission 	400.55708878525
scalar scenarioPRJP1.node[55].wlan.mgmt 	dataQueueLen:max 	0
attr interpolationmode  sample-hold
attr title  "data queue length, max"
scalar scenarioPRJP1.node[55].wlan.mgmt 	dataQueueLen:timeavg 	0
attr interpolationmode  sample-hold
attr title  "data queue length, timeavg"
scalar scenarioPRJP1.node[55].wlan.mgmt 	dropPkByQueue:count 	0
attr interpolationmode  none
attr source  dropPkByQueue
attr title  "packets dropped by queue, count"
scalar scenarioPRJP1.node[55].wlan.mgmt 	dropPkByQueue:sum(packetBytes) 	0
attr interpolationmode  none
attr source  dropPkByQueue
attr title  "packets dropped by queue, sum(packetBytes)"
scalar scenarioPRJP1.node[55].wlan.mac 	"number of received packets" 	289
scalar scenarioPRJP1.node[55].wlan.mac 	"number of collisions" 	5823
scalar scenarioPRJP1.node[55].wlan.mac 	"number of internal collisions" 	1
scalar scenarioPRJP1.node[55].wlan.mac 	"number of retry for AC 0" 	697
scalar scenarioPRJP1.node[55].wlan.mac 	"number of retry for AC 1" 	10
scalar scenarioPRJP1.node[55].wlan.mac 	"number of retry for AC 2" 	0
scalar scenarioPRJP1.node[55].wlan.mac 	"number of retry for AC 3" 	0
scalar scenarioPRJP1.node[55].wlan.mac 	"sent and received bits" 	5335616
scalar scenarioPRJP1.node[55].wlan.mac 	"sent packet within AC 0" 	258
scalar scenarioPRJP1.node[55].wlan.mac 	"sent packet within AC 1" 	3
scalar scenarioPRJP1.node[55].wlan.mac 	"sent packet within AC 2" 	0
scalar scenarioPRJP1.node[55].wlan.mac 	"sent packet within AC 3" 	0
scalar scenarioPRJP1.node[55].wlan.mac 	"sent in TXOP " 	0
scalar scenarioPRJP1.node[55].wlan.mac 	"sentWithoutRetry AC 0" 	221
scalar scenarioPRJP1.node[55].wlan.mac 	"sentWithoutRetry AC 1" 	2
scalar scenarioPRJP1.node[55].wlan.mac 	"sentWithoutRetry AC 2" 	0
scalar scenarioPRJP1.node[55].wlan.mac 	"sentWithoutRetry AC 3" 	0
scalar scenarioPRJP1.node[55].wlan.mac 	"numGivenUp AC 0" 	103
scalar scenarioPRJP1.node[55].wlan.mac 	"numGivenUp AC 1" 	1
scalar scenarioPRJP1.node[55].wlan.mac 	"numGivenUp AC 2" 	0
scalar scenarioPRJP1.node[55].wlan.mac 	"numGivenUp AC 3" 	0
scalar scenarioPRJP1.node[55].wlan.mac 	"numDropped AC 0" 	0
scalar scenarioPRJP1.node[55].wlan.mac 	"numDropped AC 1" 	0
scalar scenarioPRJP1.node[55].wlan.mac 	"numDropped AC 2" 	0
scalar scenarioPRJP1.node[55].wlan.mac 	"numDropped AC 3" 	0
scalar scenarioPRJP1.node[55].wlan.mac 	rcvdPkFromLL:count 	16881
attr interpolationmode  none
attr source  packetReceivedFromLower
attr title  "packets received from lower layer, count"
scalar scenarioPRJP1.node[55].wlan.mac 	rcvdPkFromLL:sum(packetBytes) 	10590892
attr interpolationmode  none
attr source  packetReceivedFromLower
attr title  "packets received from lower layer, sum(packetBytes)"
scalar scenarioPRJP1.node[55].wlan.mac 	sentDownPk:count 	1970
attr interpolationmode  none
attr source  packetSentToLower
attr title  "packets sent to lower layer, count"
scalar scenarioPRJP1.node[55].wlan.mac 	sentDownPk:sum(packetBytes) 	1117898
attr interpolationmode  none
attr source  packetSentToLower
attr title  "packets sent to lower layer, sum(packetBytes)"
scalar scenarioPRJP1.node[55].wlan.mac 	rcvdPkFromHL:count 	975
attr interpolationmode  none
attr source  packetReceivedFromUpper
attr title  "packets received from higher layer, count"
scalar scenarioPRJP1.node[55].wlan.mac 	rcvdPkFromHL:sum(packetBytes) 	724324
attr interpolationmode  none
attr source  packetReceivedFromUpper
attr title  "packets received from higher layer, sum(packetBytes)"
scalar scenarioPRJP1.node[55].wlan.mac 	passedUpPk:count 	5397
attr interpolationmode  none
attr source  packetSentToUpper
attr title  "packets passed to higher layer, count"
scalar scenarioPRJP1.node[55].wlan.mac 	passedUpPk:sum(packetBytes) 	4795468
attr interpolationmode  none
attr source  packetSentToUpper
attr title  "packets passed to higher layer, sum(packetBytes)"
statistic scenarioPRJP1.node[55].wlan.radio 	radioChannel:histogram
field count 1
field mean 3
field stddev -nan
field sum 3
field sqrsum 9
field min 3
field max 3
attr interpolationmode  sample-hold
attr source  radioChannelChanged
attr title  "Radio channel, histogram"
bin	-INF	0
bin	2	0
bin	3	1
bin	4	0
scalar scenarioPRJP1.node[55].wlan.radio 	transmissionState:count 	7880
attr interpolationmode  sample-hold
attr source  transmissionStateChanged
attr title  "Radio transmission state, count"
scalar scenarioPRJP1.node[55].wlan.radio 	receptionState:count 	41287
attr interpolationmode  sample-hold
attr source  receptionStateChanged
attr title  "Radio reception state, count"
scalar scenarioPRJP1.node[55].wlan.radio 	radioMode:count 	3942
attr interpolationmode  sample-hold
attr source  radioModeChanged
attr title  "Radio mode, count"
statistic scenarioPRJP1.node[55].wlan.radio 	symbolErrorRate:histogram
field count 0
field mean -nan
field stddev -nan
field sum 0
field sqrsum 0
field min -nan
field max -nan
attr source  symbolErrorRate
attr title  "Symbol error rate, histogram"
bin	-INF	0
bin	-0.5	0
bin	-0.46666666666667	0
bin	-0.43333333333333	0
bin	-0.4	0
bin	-0.36666666666667	0
bin	-0.33333333333333	0
bin	-0.3	0
bin	-0.26666666666667	0
bin	-0.23333333333333	0
bin	-0.2	0
bin	-0.16666666666667	0
bin	-0.13333333333333	0
bin	-0.1	0
bin	-0.066666666666667	0
bin	-0.033333333333333	0
bin	0	0
bin	0.033333333333333	0
bin	0.066666666666667	0
bin	0.1	0
bin	0.13333333333333	0
bin	0.16666666666667	0
bin	0.2	0
bin	0.23333333333333	0
bin	0.26666666666667	0
bin	0.3	0
bin	0.33333333333333	0
bin	0.36666666666667	0
bin	0.4	0
bin	0.43333333333333	0
bin	0.46666666666667	0
bin	0.5	0
statistic scenarioPRJP1.node[55].wlan.radio 	bitErrorRate:histogram
field count 0
field mean -nan
field stddev -nan
field sum 0
field sqrsum 0
field min -nan
field max -nan
attr source  bitErrorRate
attr title  "Bit error rate, histogram"
bin	-INF	0
bin	-0.5	0
bin	-0.46666666666667	0
bin	-0.43333333333333	0
bin	-0.4	0
bin	-0.36666666666667	0
bin	-0.33333333333333	0
bin	-0.3	0
bin	-0.26666666666667	0
bin	-0.23333333333333	0
bin	-0.2	0
bin	-0.16666666666667	0
bin	-0.13333333333333	0
bin	-0.1	0
bin	-0.066666666666667	0
bin	-0.033333333333333	0
bin	0	0
bin	0.033333333333333	0
bin	0.066666666666667	0
bin	0.1	0
bin	0.13333333333333	0
bin	0.16666666666667	0
bin	0.2	0
bin	0.23333333333333	0
bin	0.26666666666667	0
bin	0.3	0
bin	0.33333333333333	0
bin	0.36666666666667	0
bin	0.4	0
bin	0.43333333333333	0
bin	0.46666666666667	0
bin	0.5	0
statistic scenarioPRJP1.node[55].wlan.radio 	packetErrorRate:histogram
field count 16881
field mean 0.32706383910311
field stddev 0.46128292846643
field sum 5521.1646678997
field sqrsum 5397.5324614
field min 0
field max 1
attr source  packetErrorRate
attr title  "Packet error rate, histogram"
bin	-INF	0
bin	-0.5	0
bin	-0.43333333333333	0
bin	-0.36666666666667	0
bin	-0.3	0
bin	-0.23333333333333	0
bin	-0.16666666666667	0
bin	-0.1	0
bin	-0.033333333333333	10847
bin	0.033333333333333	196
bin	0.1	119
bin	0.16666666666667	60
bin	0.23333333333333	55
bin	0.3	48
bin	0.36666666666667	44
bin	0.43333333333333	31
bin	0.5	41
bin	0.56666666666667	28
bin	0.63333333333333	25
bin	0.7	36
bin	0.76666666666667	33
bin	0.83333333333333	37
bin	0.9	82
bin	0.96666666666667	5199
bin	1.0333333333333	0
bin	1.1	0
bin	1.1666666666667	0
bin	1.2333333333333	0
bin	1.3	0
bin	1.3666666666667	0
bin	1.4333333333333	0
bin	1.5	0
statistic scenarioPRJP1.node[55].wlan.radio 	minSNIR:histogram
field count 16881
field mean 470.41600377544
field stddev 4458.7369838553
field sum 7941092.5597332
field sqrsum 339315680119
field min 0.0003770958502527
field max 229105.4334063
attr source  minSNIR
attr title  "Min SNIR, histogram"
bin	-INF	0
bin	-12138.674771202	0
bin	-10520.139055149	0
bin	-8901.6033390958	0
bin	-7283.067623043	0
bin	-5664.5319069901	0
bin	-4045.9961909373	0
bin	-2427.4604748844	0
bin	-808.92475883157	15946
bin	809.61095722128	535
bin	2428.1466732741	104
bin	4046.682389327	51
bin	5665.2181053798	46
bin	7283.7538214327	31
bin	8902.2895374855	14
bin	10520.825253538	21
bin	12139.360969591	16
bin	13757.896685644	10
bin	15376.432401697	11
bin	16994.96811775	12
bin	18613.503833803	6
bin	20232.039549855	5
bin	21850.575265908	8
bin	23469.110981961	8
bin	25087.646698014	4
bin	26706.182414067	3
bin	28324.71813012	5
bin	29943.253846173	2
bin	31561.789562225	3
bin	33180.325278278	3
bin	34798.860994331	0
bin	36417.396710384	37
scalar scenarioPRJP1.node[55].lo0.lo 	droppedPkBitError:count 	0
attr interpolationmode  none
attr source  dropPkBitError
attr title  "packets dropped/bit error, count"
scalar scenarioPRJP1.node[55].lo0.lo 	droppedPkBitError:sum(packetBytes) 	0
attr interpolationmode  none
attr source  dropPkBitError
attr title  "packets dropped/bit error, sum(packetBytes)"
scalar scenarioPRJP1.node[55].lo0.lo 	rcvdPkFromHL:count 	4
attr interpolationmode  none
attr source  packetReceivedFromUpper
attr title  "packets received from higher layer, count"
scalar scenarioPRJP1.node[55].lo0.lo 	rcvdPkFromHL:sum(packetBytes) 	224
attr interpolationmode  none
attr source  packetReceivedFromUpper
attr title  "packets received from higher layer, sum(packetBytes)"
scalar scenarioPRJP1.node[55].lo0.lo 	passedUpPk:count 	4
attr interpolationmode  none
attr source  packetSentToUpper
attr title  "packets passed to higher layer, count"
scalar scenarioPRJP1.node[55].lo0.lo 	passedUpPk:sum(packetBytes) 	224
attr interpolationmode  none
attr source  packetSentToUpper
attr title  "packets passed to higher layer, sum(packetBytes)"
scalar scenarioPRJP1.node[60].app 	"Total sent" 	382
scalar scenarioPRJP1.node[60].app 	"Total received" 	18
scalar scenarioPRJP1.node[60].app 	"Total deleted" 	0
scalar scenarioPRJP1.node[60].app 	dropPk:count 	0
attr interpolationmode  none
attr source  dropPk
attr title  "packets dropped, count"
scalar scenarioPRJP1.node[60].app 	dropPk:sum(packetBytes) 	0
attr interpolationmode  none
attr source  dropPk
attr title  "packets dropped, sum(packetBytes)"
scalar scenarioPRJP1.node[60].app 	outOfOrderPk:count 	0
attr interpolationmode  none
attr source  outOfOrderPk
attr title  "packets received out of order, count"
scalar scenarioPRJP1.node[60].app 	outOfOrderPk:sum(packetBytes) 	0
attr interpolationmode  none
attr source  outOfOrderPk
attr title  "packets received out of order, sum(packetBytes)"
scalar scenarioPRJP1.node[60].app 	rcvdPk:count 	18
attr interpolationmode  none
attr source  rcvdPk
attr title  "packets received, count"
scalar scenarioPRJP1.node[60].app 	rcvdPk:sum(packetBytes) 	9216
attr interpolationmode  none
attr source  rcvdPk
attr title  "packets received, sum(packetBytes)"
statistic scenarioPRJP1.node[60].app 	endToEndDelay:histogram
field count 18
field mean 0.37776553100244
field stddev 0.62568515252882
field sum 6.799779558044
field sqrsum 9.2239148070593
field min 0.000992215025
field max 2.076016243479
attr interpolationmode  none
attr source  messageAge(rcvdPk)
attr title  "delay, histogram"
attr unit  s
bin	-INF	0
bin	-1.036519799202	0
bin	-0.89818486397173	0
bin	-0.75984992874147	0
bin	-0.6215149935112	0
bin	-0.48318005828093	0
bin	-0.34484512305067	0
bin	-0.2065101878204	0
bin	-0.068175252590133	13
bin	0.070159682640133	0
bin	0.2084946178704	0
bin	0.34682955310067	0
bin	0.48516448833093	0
bin	0.6234994235612	0
bin	0.76183435879147	0
bin	0.90016929402173	3
bin	1.038504229252	0
bin	1.1768391644823	0
bin	1.3151740997125	1
bin	1.4535090349428	0
bin	1.5918439701731	0
bin	1.7301789054033	0
bin	1.8685138406336	0
bin	2.0068487758639	1
bin	2.1451837110941	0
bin	2.2835186463244	0
bin	2.4218535815547	0
bin	2.5601885167849	0
bin	2.6985234520152	0
bin	2.8368583872455	0
bin	2.9751933224757	0
bin	3.113528257706	0
scalar scenarioPRJP1.node[60].app 	sentPk:count 	382
attr interpolationmode  none
attr source  sentPk
attr title  "packets sent, count"
scalar scenarioPRJP1.node[60].app 	sentPk:sum(packetBytes) 	195584
attr interpolationmode  none
attr source  sentPk
attr title  "packets sent, sum(packetBytes)"
scalar scenarioPRJP1.node[60].udp 	droppedPkBadChecksum:count 	0
attr interpolationmode  none
attr title  "packets dropped (checksum error), count"
scalar scenarioPRJP1.node[60].udp 	droppedPkWrongPort:count 	0
attr interpolationmode  none
attr title  "packets dropped (wrong port), count"
scalar scenarioPRJP1.node[60].udp 	passedUpPk:count 	18
attr interpolationmode  none
attr title  "packets passed up, count"
scalar scenarioPRJP1.node[60].udp 	rcvdPk:count 	18
attr interpolationmode  none
attr source  rcvdPk
attr title  "packets received, count"
scalar scenarioPRJP1.node[60].udp 	rcvdPk:sum(packetBytes) 	9360
attr interpolationmode  none
attr source  rcvdPk
attr title  "packets received, sum(packetBytes)"
scalar scenarioPRJP1.node[60].udp 	sentPk:count 	382
attr interpolationmode  none
attr source  sentPk
attr title  "packets sent, count"
scalar scenarioPRJP1.node[60].udp 	sentPk:sum(packetBytes) 	198640
attr interpolationmode  none
attr source  sentPk
attr title  "packets sent, sum(packetBytes)"
scalar scenarioPRJP1.node[60].networkLayer.arp 	failedARPResolution:count 	27
attr title  "ARP failed resolutions, count"
scalar scenarioPRJP1.node[60].networkLayer.arp 	completedARPResolution:count 	319
attr title  "ARP completed resolutions, count"
scalar scenarioPRJP1.node[60].networkLayer.arp 	initiatedARPResolution:count 	47
attr title  "ARP initiated resolutions, count"
scalar scenarioPRJP1.node[60].networkLayer.arp 	sentReply:count 	15
attr title  "ARP replies sent, count"
scalar scenarioPRJP1.node[60].networkLayer.arp 	sentReq:count 	116
attr title  "ARP request sent, count"
scalar scenarioPRJP1.node[60].mobility 	startTime 	7.2
scalar scenarioPRJP1.node[60].mobility 	totalTime 	155.9
scalar scenarioPRJP1.node[60].mobility 	stopTime 	163.2
scalar scenarioPRJP1.node[60].mobility 	minSpeed 	2.4757752239736e-13
scalar scenarioPRJP1.node[60].mobility 	maxSpeed 	15.281606756395
scalar scenarioPRJP1.node[60].mobility 	totalDistance 	1484.0226391328
scalar scenarioPRJP1.node[60].mobility 	totalCO2Emission 	411.07151842075
scalar scenarioPRJP1.node[60].wlan.mgmt 	dataQueueLen:max 	1
attr interpolationmode  sample-hold
attr title  "data queue length, max"
scalar scenarioPRJP1.node[60].wlan.mgmt 	dataQueueLen:timeavg 	0
attr interpolationmode  sample-hold
attr title  "data queue length, timeavg"
scalar scenarioPRJP1.node[60].wlan.mgmt 	dropPkByQueue:count 	0
attr interpolationmode  none
attr source  dropPkByQueue
attr title  "packets dropped by queue, count"
scalar scenarioPRJP1.node[60].wlan.mgmt 	dropPkByQueue:sum(packetBytes) 	0
attr interpolationmode  none
attr source  dropPkByQueue
attr title  "packets dropped by queue, sum(packetBytes)"
scalar scenarioPRJP1.node[60].wlan.mac 	"number of received packets" 	85
scalar scenarioPRJP1.node[60].wlan.mac 	"number of collisions" 	6348
scalar scenarioPRJP1.node[60].wlan.mac 	"number of internal collisions" 	0
scalar scenarioPRJP1.node[60].wlan.mac 	"number of retry for AC 0" 	844
scalar scenarioPRJP1.node[60].wlan.mac 	"number of retry for AC 1" 	6
scalar scenarioPRJP1.node[60].wlan.mac 	"number of retry for AC 2" 	0
scalar scenarioPRJP1.node[60].wlan.mac 	"number of retry for AC 3" 	0
scalar scenarioPRJP1.node[60].wlan.mac 	"sent and received bits" 	5455104
scalar scenarioPRJP1.node[60].wlan.mac 	"sent packet within AC 0" 	50
scalar scenarioPRJP1.node[60].wlan.mac 	"sent packet within AC 1" 	0
scalar scenarioPRJP1.node[60].wlan.mac 	"sent packet within AC 2" 	0
scalar scenarioPRJP1.node[60].wlan.mac 	"sent packet within AC 3" 	0
scalar scenarioPRJP1.node[60].wlan.mac 	"sent in TXOP " 	0
scalar scenarioPRJP1.node[60].wlan.mac 	"sentWithoutRetry AC 0" 	23
scalar scenarioPRJP1.node[60].wlan.mac 	"sentWithoutRetry AC 1" 	0
scalar scenarioPRJP1.node[60].wlan.mac 	"sentWithoutRetry AC 2" 	0
scalar scenarioPRJP1.node[60].wlan.mac 	"sentWithoutRetry AC 3" 	0
scalar scenarioPRJP1.node[60].wlan.mac 	"numGivenUp AC 0" 	128
scalar scenarioPRJP1.node[60].wlan.mac 	"numGivenUp AC 1" 	1
scalar scenarioPRJP1.node[60].wlan.mac 	"numGivenUp AC 2" 	0
scalar scenarioPRJP1.node[60].wlan.mac 	"numGivenUp AC 3" 	0
scalar scenarioPRJP1.node[60].wlan.mac 	"numDropped AC 0" 	0
scalar scenarioPRJP1.node[60].wlan.mac 	"numDropped AC 1" 	0
scalar scenarioPRJP1.node[60].wlan.mac 	"numDropped AC 2" 	0
scalar scenarioPRJP1.node[60].wlan.mac 	"numDropped AC 3" 	0
scalar scenarioPRJP1.node[60].wlan.mac 	rcvdPkFromLL:count 	15105
attr interpolationmode  none
attr source  packetReceivedFromLower
attr title  "packets received from lower layer, count"
scalar scenarioPRJP1.node[60].wlan.mac 	rcvdPkFromLL:sum(packetBytes) 	9629448
attr interpolationmode  none
attr source  packetReceivedFromLower
attr title  "packets received from lower layer, sum(packetBytes)"
scalar scenarioPRJP1.node[60].wlan.mac 	sentDownPk:count 	1861
attr interpolationmode  none
attr source  packetSentToLower
attr title  "packets sent to lower layer, count"
scalar scenarioPRJP1.node[60].wlan.mac 	sentDownPk:sum(packetBytes) 	1214410
attr interpolationmode  none
attr source  packetSentToLower
attr title  "packets sent to lower layer, sum(packetBytes)"
scalar scenarioPRJP1.node[60].wlan.mac 	rcvdPkFromHL:count 	926
attr interpolationmode  none
attr source  packetReceivedFromUpper
attr title  "packets received from higher layer, count"
scalar scenarioPRJP1.node[60].wlan.mac 	rcvdPkFromHL:sum(packetBytes) 	752124
attr interpolationmode  none
attr source  packetReceivedFromUpper
attr title  "packets received from higher layer, sum(packetBytes)"
scalar scenarioPRJP1.node[60].wlan.mac 	passedUpPk:count 	4288
attr interpolationmode  none
attr source  packetSentToUpper
attr title  "packets passed to higher layer, count"
scalar scenarioPRJP1.node[60].wlan.mac 	passedUpPk:sum(packetBytes) 	3941844
attr interpolationmode  none
attr source  packetSentToUpper
attr title  "packets passed to higher layer, sum(packetBytes)"
statistic scenarioPRJP1.node[60].wlan.radio 	radioChannel:histogram
field count 1
field mean 3
field stddev -nan
field sum 3
field sqrsum 9
field min 3
field max 3
attr interpolationmode  sample-hold
attr source  radioChannelChanged
attr title  "Radio channel, histogram"
bin	-INF	0
bin	2	0
bin	3	1
bin	4	0
scalar scenarioPRJP1.node[60].wlan.radio 	transmissionState:count 	7444
attr interpolationmode  sample-hold
attr source  transmissionStateChanged
attr title  "Radio transmission state, count"
scalar scenarioPRJP1.node[60].wlan.radio 	receptionState:count 	36736
attr interpolationmode  sample-hold
attr source  receptionStateChanged
attr title  "Radio reception state, count"
scalar scenarioPRJP1.node[60].wlan.radio 	radioMode:count 	3724
attr interpolationmode  sample-hold
attr source  radioModeChanged
attr title  "Radio mode, count"
statistic scenarioPRJP1.node[60].wlan.radio 	symbolErrorRate:histogram
field count 0
field mean -nan
field stddev -nan
field sum 0
field sqrsum 0
field min -nan
field max -nan
attr source  symbolErrorRate
attr title  "Symbol error rate, histogram"
bin	-INF	0
bin	-0.5	0
bin	-0.46666666666667	0
bin	-0.43333333333333	0
bin	-0.4	0
bin	-0.36666666666667	0
bin	-0.33333333333333	0
bin	-0.3	0
bin	-0.26666666666667	0
bin	-0.23333333333333	0
bin	-0.2	0
bin	-0.16666666666667	0
bin	-0.13333333333333	0
bin	-0.1	0
bin	-0.066666666666667	0
bin	-0.033333333333333	0
bin	0	0
bin	0.033333333333333	0
bin	0.066666666666667	0
bin	0.1	0
bin	0.13333333333333	0
bin	0.16666666666667	0
bin	0.2	0
bin	0.23333333333333	0
bin	0.26666666666667	0
bin	0.3	0
bin	0.33333333333333	0
bin	0.36666666666667	0
bin	0.4	0
bin	0.43333333333333	0
bin	0.46666666666667	0
bin	0.5	0
statistic scenarioPRJP1.node[60].wlan.radio 	bitErrorRate:histogram
field count 0
field mean -nan
field stddev -nan
field sum 0
field sqrsum 0
field min -nan
field max -nan
attr source  bitErrorRate
attr title  "Bit error rate, histogram"
bin	-INF	0
bin	-0.5	0
bin	-0.46666666666667	0
bin	-0.43333333333333	0
bin	-0.4	0
bin	-0.36666666666667	0
bin	-0.33333333333333	0
bin	-0.3	0
bin	-0.26666666666667	0
bin	-0.23333333333333	0
bin	-0.2	0
bin	-0.16666666666667	0
bin	-0.13333333333333	0
bin	-0.1	0
bin	-0.066666666666667	0
bin	-0.033333333333333	0
bin	0	0
bin	0.033333333333333	0
bin	0.066666666666667	0
bin	0.1	0
bin	0.13333333333333	0
bin	0.16666666666667	0
bin	0.2	0
bin	0.23333333333333	0
bin	0.26666666666667	0
bin	0.3	0
bin	0.33333333333333	0
bin	0.36666666666667	0
bin	0.4	0
bin	0.43333333333333	0
bin	0.46666666666667	0
bin	0.5	0
statistic scenarioPRJP1.node[60].wlan.radio 	packetErrorRate:histogram
field count 15105
field mean 0.39665870209837
field stddev 0.47860751733822
field sum 5991.5296951959
field sqrsum 5836.392503458
field min 0
field max 1
attr source  packetErrorRate
attr title  "Packet error rate, histogram"
bin	-INF	0
bin	-0.5	0
bin	-0.43333333333333	0
bin	-0.36666666666667	0
bin	-0.3	0
bin	-0.23333333333333	0
bin	-0.16666666666667	0
bin	-0.1	0
bin	-0.033333333333333	8493
bin	0.033333333333333	241
bin	0.1	107
bin	0.16666666666667	98
bin	0.23333333333333	55
bin	0.3	62
bin	0.36666666666667	66
bin	0.43333333333333	51
bin	0.5	44
bin	0.56666666666667	42
bin	0.63333333333333	42
bin	0.7	27
bin	0.76666666666667	49
bin	0.83333333333333	41
bin	0.9	82
bin	0.96666666666667	5605
bin	1.0333333333333	0
bin	1.1	0
bin	1.1666666666667	0
bin	1.2333333333333	0
bin	1.3	0
bin	1.3666666666667	0
bin	1.4333333333333	0
bin	1.5	0
statistic scenarioPRJP1.node[60].wlan.radio 	minSNIR:histogram
field count 15105
field mean 224.15656775055
field stddev 5671.5269194476
field sum 3385884.955872
field sqrsum 486597518950.99
field min 0.00027750222698935
field max 659566.15644424
attr source  minSNIR
attr title  "Min SNIR, histogram"
bin	-INF	0
bin	-10012.756284244	0
bin	-8677.6865945365	0
bin	-7342.6169048292	0
bin	-6007.5472151219	0
bin	-4672.4775254145	0
bin	-3337.4078357072	0
bin	-2002.3381459999	0
bin	-667.2684562926	14572
bin	667.80123341471	337
bin	2002.870923122	71
bin	3337.9406128293	32
bin	4673.0103025367	19
bin	6008.079992244	15
bin	7343.1496819513	7
bin	8678.2193716586	2
bin	10013.289061366	5
bin	11348.358751073	5
bin	12683.428440781	7
bin	14018.498130488	1
bin	15353.567820195	2
bin	16688.637509902	2
bin	18023.70719961	2
bin	19358.776889317	3
bin	20693.846579024	3
bin	22028.916268732	1
bin	23363.985958439	1
bin	24699.055648146	0
bin	26034.125337854	1
bin	27369.195027561	1
bin	28704.264717268	1
bin	30039.334406976	15
scalar scenarioPRJP1.node[60].lo0.lo 	droppedPkBitError:count 	0
attr interpolationmode  none
attr source  dropPkBitError
attr title  "packets dropped/bit error, count"
scalar scenarioPRJP1.node[60].lo0.lo 	droppedPkBitError:sum(packetBytes) 	0
attr interpolationmode  none
attr source  dropPkBitError
attr title  "packets dropped/bit error, sum(packetBytes)"
scalar scenarioPRJP1.node[60].lo0.lo 	rcvdPkFromHL:count 	0
attr interpolationmode  none
attr source  packetReceivedFromUpper
attr title  "packets received from higher layer, count"
scalar scenarioPRJP1.node[60].lo0.lo 	rcvdPkFromHL:sum(packetBytes) 	0
attr interpolationmode  none
attr source  packetReceivedFromUpper
attr title  "packets received from higher layer, sum(packetBytes)"
scalar scenarioPRJP1.node[60].lo0.lo 	passedUpPk:count 	0
attr interpolationmode  none
attr source  packetSentToUpper
attr title  "packets passed to higher layer, count"
scalar scenarioPRJP1.node[60].lo0.lo 	passedUpPk:sum(packetBytes) 	0
attr interpolationmode  none
attr source  packetSentToUpper
attr title  "packets passed to higher layer, sum(packetBytes)"
scalar scenarioPRJP1.node[34].app 	"Total sent" 	616
scalar scenarioPRJP1.node[34].app 	"Total received" 	29
scalar scenarioPRJP1.node[34].app 	"Total deleted" 	0
scalar scenarioPRJP1.node[34].app 	dropPk:count 	0
attr interpolationmode  none
attr source  dropPk
attr title  "packets dropped, count"
scalar scenarioPRJP1.node[34].app 	dropPk:sum(packetBytes) 	0
attr interpolationmode  none
attr source  dropPk
attr title  "packets dropped, sum(packetBytes)"
scalar scenarioPRJP1.node[34].app 	outOfOrderPk:count 	0
attr interpolationmode  none
attr source  outOfOrderPk
attr title  "packets received out of order, count"
scalar scenarioPRJP1.node[34].app 	outOfOrderPk:sum(packetBytes) 	0
attr interpolationmode  none
attr source  outOfOrderPk
attr title  "packets received out of order, sum(packetBytes)"
scalar scenarioPRJP1.node[34].app 	rcvdPk:count 	29
attr interpolationmode  none
attr source  rcvdPk
attr title  "packets received, count"
scalar scenarioPRJP1.node[34].app 	rcvdPk:sum(packetBytes) 	14848
attr interpolationmode  none
attr source  rcvdPk
attr title  "packets received, sum(packetBytes)"
statistic scenarioPRJP1.node[34].app 	endToEndDelay:histogram
field count 29
field mean 0.21464974344955
field stddev 0.41379029293918
field sum 6.224842560037
field sqrsum 6.1303882413852
field min 0.001336906551
field max 1.576691408637
attr interpolationmode  none
attr source  messageAge(rcvdPk)
attr title  "delay, histogram"
attr unit  s
bin	-INF	0
bin	-0.786340344492	0
bin	-0.6813167110196	0
bin	-0.5762930775472	0
bin	-0.4712694440748	0
bin	-0.3662458106024	0
bin	-0.26122217713	0
bin	-0.1561985436576	0
bin	-0.0511749101852	19
bin	0.0538487232872	3
bin	0.1588723567596	0
bin	0.263895990232	1
bin	0.3689196237044	2
bin	0.4739432571768	0
bin	0.5789668906492	0
bin	0.6839905241216	0
bin	0.789014157594	0
bin	0.8940377910664	0
bin	0.9990614245388	3
bin	1.1040850580112	0
bin	1.2091086914836	0
bin	1.314132324956	0
bin	1.4191559584284	0
bin	1.5241795919008	1
bin	1.6292032253732	0
bin	1.7342268588456	0
bin	1.839250492318	0
bin	1.9442741257904	0
bin	2.0492977592628	0
bin	2.1543213927352	0
bin	2.2593450262076	0
bin	2.36436865968	0
scalar scenarioPRJP1.node[34].app 	sentPk:count 	616
attr interpolationmode  none
attr source  sentPk
attr title  "packets sent, count"
scalar scenarioPRJP1.node[34].app 	sentPk:sum(packetBytes) 	315392
attr interpolationmode  none
attr source  sentPk
attr title  "packets sent, sum(packetBytes)"
scalar scenarioPRJP1.node[34].udp 	droppedPkBadChecksum:count 	0
attr interpolationmode  none
attr title  "packets dropped (checksum error), count"
scalar scenarioPRJP1.node[34].udp 	droppedPkWrongPort:count 	0
attr interpolationmode  none
attr title  "packets dropped (wrong port), count"
scalar scenarioPRJP1.node[34].udp 	passedUpPk:count 	29
attr interpolationmode  none
attr title  "packets passed up, count"
scalar scenarioPRJP1.node[34].udp 	rcvdPk:count 	29
attr interpolationmode  none
attr source  rcvdPk
attr title  "packets received, count"
scalar scenarioPRJP1.node[34].udp 	rcvdPk:sum(packetBytes) 	15080
attr interpolationmode  none
attr source  rcvdPk
attr title  "packets received, sum(packetBytes)"
scalar scenarioPRJP1.node[34].udp 	sentPk:count 	616
attr interpolationmode  none
attr source  sentPk
attr title  "packets sent, count"
scalar scenarioPRJP1.node[34].udp 	sentPk:sum(packetBytes) 	320320
attr interpolationmode  none
attr source  sentPk
attr title  "packets sent, sum(packetBytes)"
scalar scenarioPRJP1.node[34].networkLayer.arp 	failedARPResolution:count 	43
attr title  "ARP failed resolutions, count"
scalar scenarioPRJP1.node[34].networkLayer.arp 	completedARPResolution:count 	612
attr title  "ARP completed resolutions, count"
scalar scenarioPRJP1.node[34].networkLayer.arp 	initiatedARPResolution:count 	64
attr title  "ARP initiated resolutions, count"
scalar scenarioPRJP1.node[34].networkLayer.arp 	sentReply:count 	22
attr title  "ARP replies sent, count"
scalar scenarioPRJP1.node[34].networkLayer.arp 	sentReq:count 	160
attr title  "ARP request sent, count"
scalar scenarioPRJP1.node[34].mobility 	startTime 	2.5
scalar scenarioPRJP1.node[34].mobility 	totalTime 	244.1
scalar scenarioPRJP1.node[34].mobility 	stopTime 	246.7
scalar scenarioPRJP1.node[34].mobility 	minSpeed 	2.4756036594787e-13
scalar scenarioPRJP1.node[34].mobility 	maxSpeed 	17.376931801365
scalar scenarioPRJP1.node[34].mobility 	totalDistance 	2234.8313213765
scalar scenarioPRJP1.node[34].mobility 	totalCO2Emission 	648.36245815449
scalar scenarioPRJP1.node[34].wlan.mgmt 	dataQueueLen:max 	6
attr interpolationmode  sample-hold
attr title  "data queue length, max"
scalar scenarioPRJP1.node[34].wlan.mgmt 	dataQueueLen:timeavg 	0
attr interpolationmode  sample-hold
attr title  "data queue length, timeavg"
scalar scenarioPRJP1.node[34].wlan.mgmt 	dropPkByQueue:count 	0
attr interpolationmode  none
attr source  dropPkByQueue
attr title  "packets dropped by queue, count"
scalar scenarioPRJP1.node[34].wlan.mgmt 	dropPkByQueue:sum(packetBytes) 	0
attr interpolationmode  none
attr source  dropPkByQueue
attr title  "packets dropped by queue, sum(packetBytes)"
scalar scenarioPRJP1.node[34].wlan.mac 	"number of received packets" 	342
scalar scenarioPRJP1.node[34].wlan.mac 	"number of collisions" 	9352
scalar scenarioPRJP1.node[34].wlan.mac 	"number of internal collisions" 	0
scalar scenarioPRJP1.node[34].wlan.mac 	"number of retry for AC 0" 	1501
scalar scenarioPRJP1.node[34].wlan.mac 	"number of retry for AC 1" 	19
scalar scenarioPRJP1.node[34].wlan.mac 	"number of retry for AC 2" 	0
scalar scenarioPRJP1.node[34].wlan.mac 	"number of retry for AC 3" 	0
scalar scenarioPRJP1.node[34].wlan.mac 	"sent and received bits" 	9862016
scalar scenarioPRJP1.node[34].wlan.mac 	"sent packet within AC 0" 	189
scalar scenarioPRJP1.node[34].wlan.mac 	"sent packet within AC 1" 	10
scalar scenarioPRJP1.node[34].wlan.mac 	"sent packet within AC 2" 	0
scalar scenarioPRJP1.node[34].wlan.mac 	"sent packet within AC 3" 	0
scalar scenarioPRJP1.node[34].wlan.mac 	"sent in TXOP " 	0
scalar scenarioPRJP1.node[34].wlan.mac 	"sentWithoutRetry AC 0" 	124
scalar scenarioPRJP1.node[34].wlan.mac 	"sentWithoutRetry AC 1" 	7
scalar scenarioPRJP1.node[34].wlan.mac 	"sentWithoutRetry AC 2" 	0
scalar scenarioPRJP1.node[34].wlan.mac 	"sentWithoutRetry AC 3" 	0
scalar scenarioPRJP1.node[34].wlan.mac 	"numGivenUp AC 0" 	223
scalar scenarioPRJP1.node[34].wlan.mac 	"numGivenUp AC 1" 	2
scalar scenarioPRJP1.node[34].wlan.mac 	"numGivenUp AC 2" 	0
scalar scenarioPRJP1.node[34].wlan.mac 	"numGivenUp AC 3" 	0
scalar scenarioPRJP1.node[34].wlan.mac 	"numDropped AC 0" 	0
scalar scenarioPRJP1.node[34].wlan.mac 	"numDropped AC 1" 	0
scalar scenarioPRJP1.node[34].wlan.mac 	"numDropped AC 2" 	0
scalar scenarioPRJP1.node[34].wlan.mac 	"numDropped AC 3" 	0
scalar scenarioPRJP1.node[34].wlan.mac 	rcvdPkFromLL:count 	23145
attr interpolationmode  none
attr source  packetReceivedFromLower
attr title  "packets received from lower layer, count"
scalar scenarioPRJP1.node[34].wlan.mac 	rcvdPkFromLL:sum(packetBytes) 	14753836
attr interpolationmode  none
attr source  packetReceivedFromLower
attr title  "packets received from lower layer, sum(packetBytes)"
scalar scenarioPRJP1.node[34].wlan.mac 	sentDownPk:count 	3523
attr interpolationmode  none
attr source  packetSentToLower
attr title  "packets sent to lower layer, count"
scalar scenarioPRJP1.node[34].wlan.mac 	sentDownPk:sum(packetBytes) 	2178224
attr interpolationmode  none
attr source  packetSentToLower
attr title  "packets sent to lower layer, sum(packetBytes)"
scalar scenarioPRJP1.node[34].wlan.mac 	rcvdPkFromHL:count 	1661
attr interpolationmode  none
attr source  packetReceivedFromUpper
attr title  "packets received from higher layer, count"
scalar scenarioPRJP1.node[34].wlan.mac 	rcvdPkFromHL:sum(packetBytes) 	1354216
attr interpolationmode  none
attr source  packetReceivedFromUpper
attr title  "packets received from higher layer, sum(packetBytes)"
scalar scenarioPRJP1.node[34].wlan.mac 	passedUpPk:count 	6991
attr interpolationmode  none
attr source  packetSentToUpper
attr title  "packets passed to higher layer, count"
scalar scenarioPRJP1.node[34].wlan.mac 	passedUpPk:sum(packetBytes) 	6360712
attr interpolationmode  none
attr source  packetSentToUpper
attr title  "packets passed to higher layer, sum(packetBytes)"
statistic scenarioPRJP1.node[34].wlan.radio 	radioChannel:histogram
field count 1
field mean 3
field stddev -nan
field sum 3
field sqrsum 9
field min 3
field max 3
attr interpolationmode  sample-hold
attr source  radioChannelChanged
attr title  "Radio channel, histogram"
bin	-INF	0
bin	2	0
bin	3	1
bin	4	0
scalar scenarioPRJP1.node[34].wlan.radio 	transmissionState:count 	14092
attr interpolationmode  sample-hold
attr source  transmissionStateChanged
attr title  "Radio transmission state, count"
scalar scenarioPRJP1.node[34].wlan.radio 	receptionState:count 	59175
attr interpolationmode  sample-hold
attr source  receptionStateChanged
attr title  "Radio reception state, count"
scalar scenarioPRJP1.node[34].wlan.radio 	radioMode:count 	7048
attr interpolationmode  sample-hold
attr source  radioModeChanged
attr title  "Radio mode, count"
statistic scenarioPRJP1.node[34].wlan.radio 	symbolErrorRate:histogram
field count 0
field mean -nan
field stddev -nan
field sum 0
field sqrsum 0
field min -nan
field max -nan
attr source  symbolErrorRate
attr title  "Symbol error rate, histogram"
bin	-INF	0
bin	-0.5	0
bin	-0.46666666666667	0
bin	-0.43333333333333	0
bin	-0.4	0
bin	-0.36666666666667	0
bin	-0.33333333333333	0
bin	-0.3	0
bin	-0.26666666666667	0
bin	-0.23333333333333	0
bin	-0.2	0
bin	-0.16666666666667	0
bin	-0.13333333333333	0
bin	-0.1	0
bin	-0.066666666666667	0
bin	-0.033333333333333	0
bin	0	0
bin	0.033333333333333	0
bin	0.066666666666667	0
bin	0.1	0
bin	0.13333333333333	0
bin	0.16666666666667	0
bin	0.2	0
bin	0.23333333333333	0
bin	0.26666666666667	0
bin	0.3	0
bin	0.33333333333333	0
bin	0.36666666666667	0
bin	0.4	0
bin	0.43333333333333	0
bin	0.46666666666667	0
bin	0.5	0
statistic scenarioPRJP1.node[34].wlan.radio 	bitErrorRate:histogram
field count 0
field mean -nan
field stddev -nan
field sum 0
field sqrsum 0
field min -nan
field max -nan
attr source  bitErrorRate
attr title  "Bit error rate, histogram"
bin	-INF	0
bin	-0.5	0
bin	-0.46666666666667	0
bin	-0.43333333333333	0
bin	-0.4	0
bin	-0.36666666666667	0
bin	-0.33333333333333	0
bin	-0.3	0
bin	-0.26666666666667	0
bin	-0.23333333333333	0
bin	-0.2	0
bin	-0.16666666666667	0
bin	-0.13333333333333	0
bin	-0.1	0
bin	-0.066666666666667	0
bin	-0.033333333333333	0
bin	0	0
bin	0.033333333333333	0
bin	0.066666666666667	0
bin	0.1	0
bin	0.13333333333333	0
bin	0.16666666666667	0
bin	0.2	0
bin	0.23333333333333	0
bin	0.26666666666667	0
bin	0.3	0
bin	0.33333333333333	0
bin	0.36666666666667	0
bin	0.4	0
bin	0.43333333333333	0
bin	0.46666666666667	0
bin	0.5	0
statistic scenarioPRJP1.node[34].wlan.radio 	packetErrorRate:histogram
field count 23145
field mean 0.38384278449794
field stddev 0.47717255929183
field sum 8884.0412472048
field sqrsum 8679.8169965604
field min 0
field max 1
attr source  packetErrorRate
attr title  "Packet error rate, histogram"
bin	-INF	0
bin	-0.5	0
bin	-0.43333333333333	0
bin	-0.36666666666667	0
bin	-0.3	0
bin	-0.23333333333333	0
bin	-0.16666666666667	0
bin	-0.1	0
bin	-0.033333333333333	13446
bin	0.033333333333333	315
bin	0.1	150
bin	0.16666666666667	121
bin	0.23333333333333	83
bin	0.3	77
bin	0.36666666666667	59
bin	0.43333333333333	67
bin	0.5	64
bin	0.56666666666667	67
bin	0.63333333333333	52
bin	0.7	49
bin	0.76666666666667	49
bin	0.83333333333333	78
bin	0.9	111
bin	0.96666666666667	8357
bin	1.0333333333333	0
bin	1.1	0
bin	1.1666666666667	0
bin	1.2333333333333	0
bin	1.3	0
bin	1.3666666666667	0
bin	1.4333333333333	0
bin	1.5	0
statistic scenarioPRJP1.node[34].wlan.radio 	minSNIR:histogram
field count 23145
field mean 814.06504758305
field stddev 15180.006647058
field sum 18841535.52631
field sqrsum 5348470371683.4
field min 0.00028633000214391
field max 1712389.447168
attr source  minSNIR
attr title  "Min SNIR, histogram"
bin	-INF	0
bin	-6800.3262384741	0
bin	-5893.5005673221	0
bin	-4986.67489617	0
bin	-4079.849225018	0
bin	-3173.023553866	0
bin	-2266.1978827139	0
bin	-1359.3722115619	0
bin	-452.54654040988	21161
bin	454.27913074215	953
bin	1361.1048018942	347
bin	2267.9304730462	152
bin	3174.7561441982	84
bin	4081.5818153503	64
bin	4988.4074865023	57
bin	5895.2331576543	34
bin	6802.0588288064	25
bin	7708.8844999584	27
bin	8615.7101711104	17
bin	9522.5358422624	19
bin	10429.361513414	15
bin	11336.187184567	16
bin	12243.012855719	9
bin	13149.838526871	9
bin	14056.664198023	4
bin	14963.489869175	12
bin	15870.315540327	4
bin	16777.141211479	3
bin	17683.966882631	9
bin	18590.792553783	1
bin	19497.618224935	5
bin	20404.443896087	118
scalar scenarioPRJP1.node[34].lo0.lo 	droppedPkBitError:count 	0
attr interpolationmode  none
attr source  dropPkBitError
attr title  "packets dropped/bit error, count"
scalar scenarioPRJP1.node[34].lo0.lo 	droppedPkBitError:sum(packetBytes) 	0
attr interpolationmode  none
attr source  dropPkBitError
attr title  "packets dropped/bit error, sum(packetBytes)"
scalar scenarioPRJP1.node[34].lo0.lo 	rcvdPkFromHL:count 	4
attr interpolationmode  none
attr source  packetReceivedFromUpper
attr title  "packets received from higher layer, count"
scalar scenarioPRJP1.node[34].lo0.lo 	rcvdPkFromHL:sum(packetBytes) 	224
attr interpolationmode  none
attr source  packetReceivedFromUpper
attr title  "packets received from higher layer, sum(packetBytes)"
scalar scenarioPRJP1.node[34].lo0.lo 	passedUpPk:count 	4
attr interpolationmode  none
attr source  packetSentToUpper
attr title  "packets passed to higher layer, count"
scalar scenarioPRJP1.node[34].lo0.lo 	passedUpPk:sum(packetBytes) 	224
attr interpolationmode  none
attr source  packetSentToUpper
attr title  "packets passed to higher layer, sum(packetBytes)"
scalar scenarioPRJP1.node[87].app 	"Total sent" 	720
scalar scenarioPRJP1.node[87].app 	"Total received" 	41
scalar scenarioPRJP1.node[87].app 	"Total deleted" 	0
scalar scenarioPRJP1.node[87].app 	dropPk:count 	0
attr interpolationmode  none
attr source  dropPk
attr title  "packets dropped, count"
scalar scenarioPRJP1.node[87].app 	dropPk:sum(packetBytes) 	0
attr interpolationmode  none
attr source  dropPk
attr title  "packets dropped, sum(packetBytes)"
scalar scenarioPRJP1.node[87].app 	outOfOrderPk:count 	0
attr interpolationmode  none
attr source  outOfOrderPk
attr title  "packets received out of order, count"
scalar scenarioPRJP1.node[87].app 	outOfOrderPk:sum(packetBytes) 	0
attr interpolationmode  none
attr source  outOfOrderPk
attr title  "packets received out of order, sum(packetBytes)"
scalar scenarioPRJP1.node[87].app 	rcvdPk:count 	41
attr interpolationmode  none
attr source  rcvdPk
attr title  "packets received, count"
scalar scenarioPRJP1.node[87].app 	rcvdPk:sum(packetBytes) 	20992
attr interpolationmode  none
attr source  rcvdPk
attr title  "packets received, sum(packetBytes)"
statistic scenarioPRJP1.node[87].app 	endToEndDelay:histogram
field count 41
field mean 0.23563006167244
field stddev 0.65521779665001
field sum 9.66083252857
field sqrsum 19.44879700639
field min 0.000945022685
field max 3.324226954682
attr interpolationmode  none
attr source  messageAge(rcvdPk)
attr title  "delay, histogram"
attr unit  s
bin	-INF	0
bin	-1.6606959433135	0
bin	-1.4391438145137	0
bin	-1.2175916857139	0
bin	-0.9960395569141	0
bin	-0.7744874281143	0
bin	-0.5529352993145	0
bin	-0.3313831705147	0
bin	-0.1098310417149	35
bin	0.1117210870849	1
bin	0.3332732158847	0
bin	0.5548253446845	0
bin	0.7763774734843	1
bin	0.9979296022841	1
bin	1.2194817310839	0
bin	1.4410338598837	1
bin	1.6625859886835	0
bin	1.8841381174833	1
bin	2.1056902462831	0
bin	2.3272423750829	0
bin	2.5487945038827	0
bin	2.7703466326825	0
bin	2.9918987614823	0
bin	3.2134508902821	1
bin	3.4350030190819	0
bin	3.6565551478817	0
bin	3.8781072766815	0
bin	4.0996594054813	0
bin	4.3212115342811	0
bin	4.5427636630809	0
bin	4.7643157918807	0
bin	4.9858679206805	0
scalar scenarioPRJP1.node[87].app 	sentPk:count 	720
attr interpolationmode  none
attr source  sentPk
attr title  "packets sent, count"
scalar scenarioPRJP1.node[87].app 	sentPk:sum(packetBytes) 	368640
attr interpolationmode  none
attr source  sentPk
attr title  "packets sent, sum(packetBytes)"
scalar scenarioPRJP1.node[87].udp 	droppedPkBadChecksum:count 	0
attr interpolationmode  none
attr title  "packets dropped (checksum error), count"
scalar scenarioPRJP1.node[87].udp 	droppedPkWrongPort:count 	0
attr interpolationmode  none
attr title  "packets dropped (wrong port), count"
scalar scenarioPRJP1.node[87].udp 	passedUpPk:count 	41
attr interpolationmode  none
attr title  "packets passed up, count"
scalar scenarioPRJP1.node[87].udp 	rcvdPk:count 	41
attr interpolationmode  none
attr source  rcvdPk
attr title  "packets received, count"
scalar scenarioPRJP1.node[87].udp 	rcvdPk:sum(packetBytes) 	21320
attr interpolationmode  none
attr source  rcvdPk
attr title  "packets received, sum(packetBytes)"
scalar scenarioPRJP1.node[87].udp 	sentPk:count 	720
attr interpolationmode  none
attr source  sentPk
attr title  "packets sent, count"
scalar scenarioPRJP1.node[87].udp 	sentPk:sum(packetBytes) 	374400
attr interpolationmode  none
attr source  sentPk
attr title  "packets sent, sum(packetBytes)"
scalar scenarioPRJP1.node[87].networkLayer.arp 	failedARPResolution:count 	63
attr title  "ARP failed resolutions, count"
scalar scenarioPRJP1.node[87].networkLayer.arp 	completedARPResolution:count 	897
attr title  "ARP completed resolutions, count"
scalar scenarioPRJP1.node[87].networkLayer.arp 	initiatedARPResolution:count 	93
attr title  "ARP initiated resolutions, count"
scalar scenarioPRJP1.node[87].networkLayer.arp 	sentReply:count 	22
attr title  "ARP replies sent, count"
scalar scenarioPRJP1.node[87].networkLayer.arp 	sentReq:count 	238
attr title  "ARP request sent, count"
scalar scenarioPRJP1.node[87].mobility 	startTime 	9.7
scalar scenarioPRJP1.node[87].mobility 	totalTime 	272.3
scalar scenarioPRJP1.node[87].mobility 	stopTime 	282.1
scalar scenarioPRJP1.node[87].mobility 	minSpeed 	2.4754547515997e-13
scalar scenarioPRJP1.node[87].mobility 	maxSpeed 	19.462622668719
scalar scenarioPRJP1.node[87].mobility 	totalDistance 	2204.8137727297
scalar scenarioPRJP1.node[87].mobility 	totalCO2Emission 	730.00435736452
scalar scenarioPRJP1.node[87].wlan.mgmt 	dataQueueLen:max 	0
attr interpolationmode  sample-hold
attr title  "data queue length, max"
scalar scenarioPRJP1.node[87].wlan.mgmt 	dataQueueLen:timeavg 	0
attr interpolationmode  sample-hold
attr title  "data queue length, timeavg"
scalar scenarioPRJP1.node[87].wlan.mgmt 	dropPkByQueue:count 	0
attr interpolationmode  none
attr source  dropPkByQueue
attr title  "packets dropped by queue, count"
scalar scenarioPRJP1.node[87].wlan.mgmt 	dropPkByQueue:sum(packetBytes) 	0
attr interpolationmode  none
attr source  dropPkByQueue
attr title  "packets dropped by queue, sum(packetBytes)"
scalar scenarioPRJP1.node[87].wlan.mac 	"number of received packets" 	301
scalar scenarioPRJP1.node[87].wlan.mac 	"number of collisions" 	13746
scalar scenarioPRJP1.node[87].wlan.mac 	"number of internal collisions" 	0
scalar scenarioPRJP1.node[87].wlan.mac 	"number of retry for AC 0" 	1721
scalar scenarioPRJP1.node[87].wlan.mac 	"number of retry for AC 1" 	13
scalar scenarioPRJP1.node[87].wlan.mac 	"number of retry for AC 2" 	0
scalar scenarioPRJP1.node[87].wlan.mac 	"number of retry for AC 3" 	0
scalar scenarioPRJP1.node[87].wlan.mac 	"sent and received bits" 	10609952
scalar scenarioPRJP1.node[87].wlan.mac 	"sent packet within AC 0" 	188
scalar scenarioPRJP1.node[87].wlan.mac 	"sent packet within AC 1" 	4
scalar scenarioPRJP1.node[87].wlan.mac 	"sent packet within AC 2" 	0
scalar scenarioPRJP1.node[87].wlan.mac 	"sent packet within AC 3" 	0
scalar scenarioPRJP1.node[87].wlan.mac 	"sent in TXOP " 	0
scalar scenarioPRJP1.node[87].wlan.mac 	"sentWithoutRetry AC 0" 	127
scalar scenarioPRJP1.node[87].wlan.mac 	"sentWithoutRetry AC 1" 	3
scalar scenarioPRJP1.node[87].wlan.mac 	"sentWithoutRetry AC 2" 	0
scalar scenarioPRJP1.node[87].wlan.mac 	"sentWithoutRetry AC 3" 	0
scalar scenarioPRJP1.node[87].wlan.mac 	"numGivenUp AC 0" 	258
scalar scenarioPRJP1.node[87].wlan.mac 	"numGivenUp AC 1" 	2
scalar scenarioPRJP1.node[87].wlan.mac 	"numGivenUp AC 2" 	0
scalar scenarioPRJP1.node[87].wlan.mac 	"numGivenUp AC 3" 	0
scalar scenarioPRJP1.node[87].wlan.mac 	"numDropped AC 0" 	0
scalar scenarioPRJP1.node[87].wlan.mac 	"numDropped AC 1" 	0
scalar scenarioPRJP1.node[87].wlan.mac 	"numDropped AC 2" 	0
scalar scenarioPRJP1.node[87].wlan.mac 	"numDropped AC 3" 	0
scalar scenarioPRJP1.node[87].wlan.mac 	rcvdPkFromLL:count 	35353
attr interpolationmode  none
attr source  packetReceivedFromLower
attr title  "packets received from lower layer, count"
scalar scenarioPRJP1.node[87].wlan.mac 	rcvdPkFromLL:sum(packetBytes) 	22651536
attr interpolationmode  none
attr source  packetReceivedFromLower
attr title  "packets received from lower layer, sum(packetBytes)"
scalar scenarioPRJP1.node[87].wlan.mac 	sentDownPk:count 	3880
attr interpolationmode  none
attr source  packetSentToLower
attr title  "packets sent to lower layer, count"
scalar scenarioPRJP1.node[87].wlan.mac 	sentDownPk:sum(packetBytes) 	2421566
attr interpolationmode  none
attr source  packetSentToLower
attr title  "packets sent to lower layer, sum(packetBytes)"
scalar scenarioPRJP1.node[87].wlan.mac 	rcvdPkFromHL:count 	1845
attr interpolationmode  none
attr source  packetReceivedFromUpper
attr title  "packets received from higher layer, count"
scalar scenarioPRJP1.node[87].wlan.mac 	rcvdPkFromHL:sum(packetBytes) 	1468892
attr interpolationmode  none
attr source  packetReceivedFromUpper
attr title  "packets received from higher layer, sum(packetBytes)"
scalar scenarioPRJP1.node[87].wlan.mac 	passedUpPk:count 	10407
attr interpolationmode  none
attr source  packetSentToUpper
attr title  "packets passed to higher layer, count"
scalar scenarioPRJP1.node[87].wlan.mac 	passedUpPk:sum(packetBytes) 	9567036
attr interpolationmode  none
attr source  packetSentToUpper
attr title  "packets passed to higher layer, sum(packetBytes)"
statistic scenarioPRJP1.node[87].wlan.radio 	radioChannel:histogram
field count 1
field mean 3
field stddev -nan
field sum 3
field sqrsum 9
field min 3
field max 3
attr interpolationmode  sample-hold
attr source  radioChannelChanged
attr title  "Radio channel, histogram"
bin	-INF	0
bin	2	0
bin	3	1
bin	4	0
scalar scenarioPRJP1.node[87].wlan.radio 	transmissionState:count 	15520
attr interpolationmode  sample-hold
attr source  transmissionStateChanged
attr title  "Radio transmission state, count"
scalar scenarioPRJP1.node[87].wlan.radio 	receptionState:count 	87923
attr interpolationmode  sample-hold
attr source  receptionStateChanged
attr title  "Radio reception state, count"
scalar scenarioPRJP1.node[87].wlan.radio 	radioMode:count 	7762
attr interpolationmode  sample-hold
attr source  radioModeChanged
attr title  "Radio mode, count"
statistic scenarioPRJP1.node[87].wlan.radio 	symbolErrorRate:histogram
field count 0
field mean -nan
field stddev -nan
field sum 0
field sqrsum 0
field min -nan
field max -nan
attr source  symbolErrorRate
attr title  "Symbol error rate, histogram"
bin	-INF	0
bin	-0.5	0
bin	-0.46666666666667	0
bin	-0.43333333333333	0
bin	-0.4	0
bin	-0.36666666666667	0
bin	-0.33333333333333	0
bin	-0.3	0
bin	-0.26666666666667	0
bin	-0.23333333333333	0
bin	-0.2	0
bin	-0.16666666666667	0
bin	-0.13333333333333	0
bin	-0.1	0
bin	-0.066666666666667	0
bin	-0.033333333333333	0
bin	0	0
bin	0.033333333333333	0
bin	0.066666666666667	0
bin	0.1	0
bin	0.13333333333333	0
[...]
scalar scenarioPRJP1.node[75].wlan.mac 	passedUpPk:count 	25055
attr interpolationmode  none
attr source  packetSentToUpper
attr title  "packets passed to higher layer, count"
scalar scenarioPRJP1.node[75].wlan.mac 	passedUpPk:sum(packetBytes) 	23474144
attr interpolationmode  none
attr source  packetSentToUpper
attr title  "packets passed to higher layer, sum(packetBytes)"
statistic scenarioPRJP1.node[75].wlan.radio 	radioChannel:histogram
field count 1
field mean 3
field stddev -nan
field sum 3
field sqrsum 9
field min 3
field max 3
attr interpolationmode  sample-hold
attr source  radioChannelChanged
attr title  "Radio channel, histogram"
bin	-INF	0
bin	2	0
bin	3	1
bin	4	0
scalar scenarioPRJP1.node[75].wlan.radio 	transmissionState:count 	49408
attr interpolationmode  sample-hold
attr source  transmissionStateChanged
attr title  "Radio transmission state, count"
scalar scenarioPRJP1.node[75].wlan.radio 	receptionState:count 	221356
attr interpolationmode  sample-hold
attr source  receptionStateChanged
attr title  "Radio reception state, count"
scalar scenarioPRJP1.node[75].wlan.radio 	radioMode:count 	24706
attr interpolationmode  sample-hold
attr source  radioModeChanged
attr title  "Radio mode, count"
statistic scenarioPRJP1.node[75].wlan.radio 	symbolErrorRate:histogram
field count 0
field mean -nan
field stddev -nan
field sum 0
field sqrsum 0
field min -nan
field max -nan
attr source  symbolErrorRate
attr title  "Symbol error rate, histogram"
bin	-INF	0
bin	-0.5	0
bin	-0.46666666666667	0
bin	-0.43333333333333	0
bin	-0.4	0
bin	-0.36666666666667	0
bin	-0.33333333333333	0
bin	-0.3	0
bin	-0.26666666666667	0
bin	-0.23333333333333	0
bin	-0.2	0
bin	-0.16666666666667	0
bin	-0.13333333333333	0
bin	-0.1	0
bin	-0.066666666666667	0
bin	-0.033333333333333	0
bin	0	0
bin	0.033333333333333	0
bin	0.066666666666667	0
bin	0.1	0
bin	0.13333333333333	0
bin	0.16666666666667	0
bin	0.2	0
bin	0.23333333333333	0
bin	0.26666666666667	0
bin	0.3	0
bin	0.33333333333333	0
bin	0.36666666666667	0
bin	0.4	0
bin	0.43333333333333	0
bin	0.46666666666667	0
bin	0.5	0
statistic scenarioPRJP1.node[75].wlan.radio 	bitErrorRate:histogram
field count 0
field mean -nan
field stddev -nan
field sum 0
field sqrsum 0
field min -nan
field max -nan
attr source  bitErrorRate
attr title  "Bit error rate, histogram"
bin	-INF	0
bin	-0.5	0
bin	-0.46666666666667	0
bin	-0.43333333333333	0
bin	-0.4	0
bin	-0.36666666666667	0
bin	-0.33333333333333	0
bin	-0.3	0
bin	-0.26666666666667	0
bin	-0.23333333333333	0
bin	-0.2	0
bin	-0.16666666666667	0
bin	-0.13333333333333	0
bin	-0.1	0
bin	-0.066666666666667	0
bin	-0.033333333333333	0
bin	0	0
bin	0.033333333333333	0
bin	0.066666666666667	0
bin	0.1	0
bin	0.13333333333333	0
bin	0.16666666666667	0
bin	0.2	0
bin	0.23333333333333	0
bin	0.26666666666667	0
bin	0.3	0
bin	0.33333333333333	0
bin	0.36666666666667	0
bin	0.4	0
bin	0.43333333333333	0
bin	0.46666666666667	0
bin	0.5	0
statistic scenarioPRJP1.node[75].wlan.radio 	packetErrorRate:histogram
field count 86022
field mean 0.40067036654745
field stddev 0.48150929652615
field sum 34466.466271145
field sqrsum 33753.763976845
field min 0
field max 1
attr source  packetErrorRate
attr title  "Packet error rate, histogram"
bin	-INF	0
bin	-0.5	0
bin	-0.43333333333333	0
bin	-0.36666666666667	0
bin	-0.3	0
bin	-0.23333333333333	0
bin	-0.16666666666667	0
bin	-0.1	0
bin	-0.033333333333333	48670
bin	0.033333333333333	1179
bin	0.1	539
bin	0.16666666666667	384
bin	0.23333333333333	331
bin	0.3	218
bin	0.36666666666667	221
bin	0.43333333333333	212
bin	0.5	187
bin	0.56666666666667	185
bin	0.63333333333333	205
bin	0.7	236
bin	0.76666666666667	196
bin	0.83333333333333	262
bin	0.9	402
bin	0.96666666666667	32595
bin	1.0333333333333	0
bin	1.1	0
bin	1.1666666666667	0
bin	1.2333333333333	0
bin	1.3	0
bin	1.3666666666667	0
bin	1.4333333333333	0
bin	1.5	0
statistic scenarioPRJP1.node[75].wlan.radio 	minSNIR:histogram
field count 86022
field mean 720.430997219
field stddev 12309.510102737
field sum 61972915.242773
field sqrsum 13078896565314
field min 0.00014480427895226
field max 1441548.0201215
attr source  minSNIR
attr title  "Min SNIR, histogram"
bin	-INF	0
bin	-8068.2825931624	0
bin	-6992.4950228267	0
bin	-5916.707452491	0
bin	-4840.9198821554	0
bin	-3765.1323118197	0
bin	-2689.3447414841	0
bin	-1613.5571711484	0
bin	-537.76960081274	80236
bin	538.01796952292	2860
bin	1613.8055398586	860
bin	2689.5931101942	405
bin	3765.3806805299	275
bin	4841.1682508656	161
bin	5916.9558212012	127
bin	6992.7433915369	125
bin	8068.5309618725	93
bin	9144.3185322082	82
bin	10220.106102544	52
bin	11295.89367288	57
bin	12371.681243215	41
bin	13447.468813551	33
bin	14523.256383887	36
bin	15599.043954222	32
bin	16674.831524558	24
bin	17750.619094893	26
bin	18826.406665229	16
bin	19902.194235565	21
bin	20977.9818059	19
bin	22053.769376236	13
bin	23129.556946572	18
bin	24205.344516907	410
scalar scenarioPRJP1.node[75].lo0.lo 	droppedPkBitError:count 	0
attr interpolationmode  none
attr source  dropPkBitError
attr title  "packets dropped/bit error, count"
scalar scenarioPRJP1.node[75].lo0.lo 	droppedPkBitError:sum(packetBytes) 	0
attr interpolationmode  none
attr source  dropPkBitError
attr title  "packets dropped/bit error, sum(packetBytes)"
scalar scenarioPRJP1.node[75].lo0.lo 	rcvdPkFromHL:count 	4
attr interpolationmode  none
attr source  packetReceivedFromUpper
attr title  "packets received from higher layer, count"
scalar scenarioPRJP1.node[75].lo0.lo 	rcvdPkFromHL:sum(packetBytes) 	224
attr interpolationmode  none
attr source  packetReceivedFromUpper
attr title  "packets received from higher layer, sum(packetBytes)"
scalar scenarioPRJP1.node[75].lo0.lo 	passedUpPk:count 	4
attr interpolationmode  none
attr source  packetSentToUpper
attr title  "packets passed to higher layer, count"
scalar scenarioPRJP1.node[75].lo0.lo 	passedUpPk:sum(packetBytes) 	224
attr interpolationmode  none
attr source  packetSentToUpper
attr title  "packets passed to higher layer, sum(packetBytes)"
scalar scenarioPRJP1.node[95].app 	"Total sent" 	2615
scalar scenarioPRJP1.node[95].app 	"Total received" 	141
scalar scenarioPRJP1.node[95].app 	"Total deleted" 	0
scalar scenarioPRJP1.node[95].app 	dropPk:count 	0
attr interpolationmode  none
attr source  dropPk
attr title  "packets dropped, count"
scalar scenarioPRJP1.node[95].app 	dropPk:sum(packetBytes) 	0
attr interpolationmode  none
attr source  dropPk
attr title  "packets dropped, sum(packetBytes)"
scalar scenarioPRJP1.node[95].app 	outOfOrderPk:count 	0
attr interpolationmode  none
attr source  outOfOrderPk
attr title  "packets received out of order, count"
scalar scenarioPRJP1.node[95].app 	outOfOrderPk:sum(packetBytes) 	0
attr interpolationmode  none
attr source  outOfOrderPk
attr title  "packets received out of order, sum(packetBytes)"
scalar scenarioPRJP1.node[95].app 	rcvdPk:count 	141
attr interpolationmode  none
attr source  rcvdPk
attr title  "packets received, count"
scalar scenarioPRJP1.node[95].app 	rcvdPk:sum(packetBytes) 	72192
attr interpolationmode  none
attr source  rcvdPk
attr title  "packets received, sum(packetBytes)"
statistic scenarioPRJP1.node[95].app 	endToEndDelay:histogram
field count 141
field mean 0.22221424005863
field stddev 0.54860677101771
field sum 31.332207848267
field sqrsum 49.098177245269
field min 0.000945038072
field max 3.023228683074
attr interpolationmode  none
attr source  messageAge(rcvdPk)
attr title  "delay, histogram"
attr unit  s
bin	-INF	0
bin	-1.510196784429	0
bin	-1.3087112080955	0
bin	-1.1072256317621	0
bin	-0.9057400554286	0
bin	-0.70425447909513	0
bin	-0.50276890276167	0
bin	-0.3012833264282	0
bin	-0.099797750094733	119
bin	0.10168782623873	1
bin	0.3031734025722	2
bin	0.50465897890567	1
bin	0.70614455523913	3
bin	0.9076301315726	6
bin	1.1091157079061	1
bin	1.3106012842395	1
bin	1.512086860573	0
bin	1.7135724369065	1
bin	1.9150580132399	3
bin	2.1165435895734	1
bin	2.3180291659069	0
bin	2.5195147422403	1
bin	2.7210003185738	0
bin	2.9224858949073	1
bin	3.1239714712407	0
bin	3.3254570475742	0
bin	3.5269426239077	0
bin	3.7284282002411	0
bin	3.9299137765746	0
bin	4.1313993529081	0
bin	4.3328849292415	0
bin	4.534370505575	0
scalar scenarioPRJP1.node[95].app 	sentPk:count 	2615
attr interpolationmode  none
attr source  sentPk
attr title  "packets sent, count"
scalar scenarioPRJP1.node[95].app 	sentPk:sum(packetBytes) 	1338880
attr interpolationmode  none
attr source  sentPk
attr title  "packets sent, sum(packetBytes)"
scalar scenarioPRJP1.node[95].udp 	droppedPkBadChecksum:count 	0
attr interpolationmode  none
attr title  "packets dropped (checksum error), count"
scalar scenarioPRJP1.node[95].udp 	droppedPkWrongPort:count 	0
attr interpolationmode  none
attr title  "packets dropped (wrong port), count"
scalar scenarioPRJP1.node[95].udp 	passedUpPk:count 	141
attr interpolationmode  none
attr title  "packets passed up, count"
scalar scenarioPRJP1.node[95].udp 	rcvdPk:count 	141
attr interpolationmode  none
attr source  rcvdPk
attr title  "packets received, count"
scalar scenarioPRJP1.node[95].udp 	rcvdPk:sum(packetBytes) 	73320
attr interpolationmode  none
attr source  rcvdPk
attr title  "packets received, sum(packetBytes)"
scalar scenarioPRJP1.node[95].udp 	sentPk:count 	2615
attr interpolationmode  none
attr source  sentPk
attr title  "packets sent, count"
scalar scenarioPRJP1.node[95].udp 	sentPk:sum(packetBytes) 	1359800
attr interpolationmode  none
attr source  sentPk
attr title  "packets sent, sum(packetBytes)"
scalar scenarioPRJP1.node[95].networkLayer.arp 	failedARPResolution:count 	177
attr title  "ARP failed resolutions, count"
scalar scenarioPRJP1.node[95].networkLayer.arp 	completedARPResolution:count 	2341
attr title  "ARP completed resolutions, count"
scalar scenarioPRJP1.node[95].networkLayer.arp 	initiatedARPResolution:count 	259
attr title  "ARP initiated resolutions, count"
scalar scenarioPRJP1.node[95].networkLayer.arp 	sentReply:count 	62
attr title  "ARP replies sent, count"
scalar scenarioPRJP1.node[95].networkLayer.arp 	sentReq:count 	685
attr title  "ARP request sent, count"
scalar scenarioPRJP1.node[95].mobility 	startTime 	9.7
scalar scenarioPRJP1.node[95].mobility 	totalTime 	940.3
scalar scenarioPRJP1.node[95].mobility 	stopTime 	950
scalar scenarioPRJP1.node[95].mobility 	minSpeed 	2.475561581407e-13
scalar scenarioPRJP1.node[95].mobility 	maxSpeed 	19.493470840598
scalar scenarioPRJP1.node[95].mobility 	totalDistance 	8533.4584806911
scalar scenarioPRJP1.node[95].mobility 	totalCO2Emission 	2574.196845754
scalar scenarioPRJP1.node[95].wlan.mgmt 	dataQueueLen:max 	2
attr interpolationmode  sample-hold
attr title  "data queue length, max"
scalar scenarioPRJP1.node[95].wlan.mgmt 	dataQueueLen:timeavg 	0
attr interpolationmode  sample-hold
attr title  "data queue length, timeavg"
scalar scenarioPRJP1.node[95].wlan.mgmt 	dropPkByQueue:count 	0
attr interpolationmode  none
attr source  dropPkByQueue
attr title  "packets dropped by queue, count"
scalar scenarioPRJP1.node[95].wlan.mgmt 	dropPkByQueue:sum(packetBytes) 	0
attr interpolationmode  none
attr source  dropPkByQueue
attr title  "packets dropped by queue, sum(packetBytes)"
scalar scenarioPRJP1.node[95].wlan.mac 	"number of received packets" 	1190
scalar scenarioPRJP1.node[95].wlan.mac 	"number of collisions" 	43318
scalar scenarioPRJP1.node[95].wlan.mac 	"number of internal collisions" 	1
scalar scenarioPRJP1.node[95].wlan.mac 	"number of retry for AC 0" 	6611
scalar scenarioPRJP1.node[95].wlan.mac 	"number of retry for AC 1" 	77
scalar scenarioPRJP1.node[95].wlan.mac 	"number of retry for AC 2" 	0
scalar scenarioPRJP1.node[95].wlan.mac 	"number of retry for AC 3" 	0
scalar scenarioPRJP1.node[95].wlan.mac 	"sent and received bits" 	42626336
scalar scenarioPRJP1.node[95].wlan.mac 	"sent packet within AC 0" 	750
scalar scenarioPRJP1.node[95].wlan.mac 	"sent packet within AC 1" 	34
scalar scenarioPRJP1.node[95].wlan.mac 	"sent packet within AC 2" 	0
scalar scenarioPRJP1.node[95].wlan.mac 	"sent packet within AC 3" 	0
scalar scenarioPRJP1.node[95].wlan.mac 	"sent in TXOP " 	0
scalar scenarioPRJP1.node[95].wlan.mac 	"sentWithoutRetry AC 0" 	518
scalar scenarioPRJP1.node[95].wlan.mac 	"sentWithoutRetry AC 1" 	25
scalar scenarioPRJP1.node[95].wlan.mac 	"sentWithoutRetry AC 2" 	0
scalar scenarioPRJP1.node[95].wlan.mac 	"sentWithoutRetry AC 3" 	0
scalar scenarioPRJP1.node[95].wlan.mac 	"numGivenUp AC 0" 	1005
scalar scenarioPRJP1.node[95].wlan.mac 	"numGivenUp AC 1" 	9
scalar scenarioPRJP1.node[95].wlan.mac 	"numGivenUp AC 2" 	0
scalar scenarioPRJP1.node[95].wlan.mac 	"numGivenUp AC 3" 	0
scalar scenarioPRJP1.node[95].wlan.mac 	"numDropped AC 0" 	0
scalar scenarioPRJP1.node[95].wlan.mac 	"numDropped AC 1" 	0
scalar scenarioPRJP1.node[95].wlan.mac 	"numDropped AC 2" 	0
scalar scenarioPRJP1.node[95].wlan.mac 	"numDropped AC 3" 	0
scalar scenarioPRJP1.node[95].wlan.mac 	rcvdPkFromLL:count 	108555
attr interpolationmode  none
attr source  packetReceivedFromLower
attr title  "packets received from lower layer, count"
scalar scenarioPRJP1.node[95].wlan.mac 	rcvdPkFromLL:sum(packetBytes) 	70905434
attr interpolationmode  none
attr source  packetReceivedFromLower
attr title  "packets received from lower layer, sum(packetBytes)"
scalar scenarioPRJP1.node[95].wlan.mac 	sentDownPk:count 	15040
attr interpolationmode  none
attr source  packetSentToLower
attr title  "packets sent to lower layer, count"
scalar scenarioPRJP1.node[95].wlan.mac 	sentDownPk:sum(packetBytes) 	9602400
attr interpolationmode  none
attr source  packetSentToLower
attr title  "packets sent to lower layer, sum(packetBytes)"
scalar scenarioPRJP1.node[95].wlan.mac 	rcvdPkFromHL:count 	7163
attr interpolationmode  none
attr source  packetReceivedFromUpper
attr title  "packets received from higher layer, count"
scalar scenarioPRJP1.node[95].wlan.mac 	rcvdPkFromHL:sum(packetBytes) 	5891104
attr interpolationmode  none
attr source  packetReceivedFromUpper
attr title  "packets received from higher layer, sum(packetBytes)"
scalar scenarioPRJP1.node[95].wlan.mac 	passedUpPk:count 	31652
attr interpolationmode  none
attr source  packetSentToUpper
attr title  "packets passed to higher layer, count"
scalar scenarioPRJP1.node[95].wlan.mac 	passedUpPk:sum(packetBytes) 	29662236
attr interpolationmode  none
attr source  packetSentToUpper
attr title  "packets passed to higher layer, sum(packetBytes)"
statistic scenarioPRJP1.node[95].wlan.radio 	radioChannel:histogram
field count 1
field mean 3
field stddev -nan
field sum 3
field sqrsum 9
field min 3
field max 3
attr interpolationmode  sample-hold
attr source  radioChannelChanged
attr title  "Radio channel, histogram"
bin	-INF	0
bin	2	0
bin	3	1
bin	4	0
scalar scenarioPRJP1.node[95].wlan.radio 	transmissionState:count 	60160
attr interpolationmode  sample-hold
attr source  transmissionStateChanged
attr title  "Radio transmission state, count"
scalar scenarioPRJP1.node[95].wlan.radio 	receptionState:count 	276345
attr interpolationmode  sample-hold
attr source  receptionStateChanged
attr title  "Radio reception state, count"
scalar scenarioPRJP1.node[95].wlan.radio 	radioMode:count 	30082
attr interpolationmode  sample-hold
attr source  radioModeChanged
attr title  "Radio mode, count"
statistic scenarioPRJP1.node[95].wlan.radio 	symbolErrorRate:histogram
field count 0
field mean -nan
field stddev -nan
field sum 0
field sqrsum 0
field min -nan
field max -nan
attr source  symbolErrorRate
attr title  "Symbol error rate, histogram"
bin	-INF	0
bin	-0.5	0
bin	-0.46666666666667	0
bin	-0.43333333333333	0
bin	-0.4	0
bin	-0.36666666666667	0
bin	-0.33333333333333	0
bin	-0.3	0
bin	-0.26666666666667	0
bin	-0.23333333333333	0
bin	-0.2	0
bin	-0.16666666666667	0
bin	-0.13333333333333	0
bin	-0.1	0
bin	-0.066666666666667	0
bin	-0.033333333333333	0
bin	0	0
bin	0.033333333333333	0
bin	0.066666666666667	0
bin	0.1	0
bin	0.13333333333333	0
bin	0.16666666666667	0
bin	0.2	0
bin	0.23333333333333	0
bin	0.26666666666667	0
bin	0.3	0
bin	0.33333333333333	0
bin	0.36666666666667	0
bin	0.4	0
bin	0.43333333333333	0
bin	0.46666666666667	0
bin	0.5	0
statistic scenarioPRJP1.node[95].wlan.radio 	bitErrorRate:histogram
field count 0
field mean -nan
field stddev -nan
field sum 0
field sqrsum 0
field min -nan
field max -nan
attr source  bitErrorRate
attr title  "Bit error rate, histogram"
bin	-INF	0
bin	-0.5	0
bin	-0.46666666666667	0
bin	-0.43333333333333	0
bin	-0.4	0
bin	-0.36666666666667	0
bin	-0.33333333333333	0
bin	-0.3	0
bin	-0.26666666666667	0
bin	-0.23333333333333	0
bin	-0.2	0
bin	-0.16666666666667	0
bin	-0.13333333333333	0
bin	-0.1	0
bin	-0.066666666666667	0
bin	-0.033333333333333	0
bin	0	0
bin	0.033333333333333	0
bin	0.066666666666667	0
bin	0.1	0
bin	0.13333333333333	0
bin	0.16666666666667	0
bin	0.2	0
bin	0.23333333333333	0
bin	0.26666666666667	0
bin	0.3	0
bin	0.33333333333333	0
bin	0.36666666666667	0
bin	0.4	0
bin	0.43333333333333	0
bin	0.46666666666667	0
bin	0.5	0
statistic scenarioPRJP1.node[95].wlan.radio 	packetErrorRate:histogram
field count 108555
field mean 0.38153246051991
field stddev 0.47740185652382
field sum 41417.256251738
field sqrsum 40542.844750915
field min 0
field max 1
attr source  packetErrorRate
attr title  "Packet error rate, histogram"
bin	-INF	0
bin	-0.5	0
bin	-0.43333333333333	0
bin	-0.36666666666667	0
bin	-0.3	0
bin	-0.23333333333333	0
bin	-0.16666666666667	0
bin	-0.1	0
bin	-0.033333333333333	63633
bin	0.033333333333333	1360
bin	0.1	673
bin	0.16666666666667	493
bin	0.23333333333333	393
bin	0.3	334
bin	0.36666666666667	271
bin	0.43333333333333	262
bin	0.5	255
bin	0.56666666666667	223
bin	0.63333333333333	214
bin	0.7	235
bin	0.76666666666667	257
bin	0.83333333333333	284
bin	0.9	533
bin	0.96666666666667	39135
bin	1.0333333333333	0
bin	1.1	0
bin	1.1666666666667	0
bin	1.2333333333333	0
bin	1.3	0
bin	1.3666666666667	0
bin	1.4333333333333	0
bin	1.5	0
statistic scenarioPRJP1.node[95].wlan.radio 	minSNIR:histogram
field count 108555
field mean 784.21583972596
field stddev 10999.505182295
field sum 85130550.481452
field sqrsum 13200613035006
field min 9.0550585603348e-05
field max 1094352.2888365
attr source  minSNIR
attr title  "Min SNIR, histogram"
bin	-INF	0
bin	-4584.411888506	0
bin	-3973.0646042059	0
bin	-3361.7173199059	0
bin	-2750.3700356058	0
bin	-2139.0227513057	0
bin	-1527.6754670056	0
bin	-916.32818270551	0
bin	-304.98089840542	97711
bin	306.36638589467	5328
bin	917.71367019475	1495
bin	1529.0609544948	719
bin	2140.4082387949	400
bin	2751.755523095	327
bin	3363.1028073951	266
bin	3974.4500916952	166
bin	4585.7973759953	152
bin	5197.1446602954	129
bin	5808.4919445955	120
bin	6419.8392288955	88
bin	7031.1865131956	75
bin	7642.5337974957	73
bin	8253.8810817958	65
bin	8865.2283660959	67
bin	9476.575650396	54
bin	10087.922934696	69
bin	10699.270218996	67
bin	11310.617503296	57
bin	11921.964787596	39
bin	12533.312071896	41
bin	13144.659356196	32
bin	13756.006640497	1015
scalar scenarioPRJP1.node[95].lo0.lo 	droppedPkBitError:count 	0
attr interpolationmode  none
attr source  dropPkBitError
attr title  "packets dropped/bit error, count"
scalar scenarioPRJP1.node[95].lo0.lo 	droppedPkBitError:sum(packetBytes) 	0
attr interpolationmode  none
attr source  dropPkBitError
attr title  "packets dropped/bit error, sum(packetBytes)"
scalar scenarioPRJP1.node[95].lo0.lo 	rcvdPkFromHL:count 	5
attr interpolationmode  none
attr source  packetReceivedFromUpper
attr title  "packets received from higher layer, count"
scalar scenarioPRJP1.node[95].lo0.lo 	rcvdPkFromHL:sum(packetBytes) 	280
attr interpolationmode  none
attr source  packetReceivedFromUpper
attr title  "packets received from higher layer, sum(packetBytes)"
scalar scenarioPRJP1.node[95].lo0.lo 	passedUpPk:count 	5
attr interpolationmode  none
attr source  packetSentToUpper
attr title  "packets passed to higher layer, count"
scalar scenarioPRJP1.node[95].lo0.lo 	passedUpPk:sum(packetBytes) 	280
attr interpolationmode  none
attr source  packetSentToUpper
attr title  "packets passed to higher layer, sum(packetBytes)"
