version 2
run DYMOUM-FS-75n-10-20150616-18:24:11-13489
attr configname DYMOUM-FS-75n
attr datetime 20150616-18:24:11
attr experiment DYMOUM-FS-75n
attr inifile omnetpp.ini
attr iterationvars ""
attr iterationvars2 $repetition=10
attr measurement ""
attr network Prj_Part1_propag.scenarioPRJP1
attr processid 13489
attr repetition 10
attr replication #10
attr resultdir results
attr runnumber 10
attr seedset 10

scalar scenarioPRJP1.node[66].app 	"Total sent" 	4842
scalar scenarioPRJP1.node[66].app 	"Total received" 	1038
scalar scenarioPRJP1.node[66].app 	"Total deleted" 	140
scalar scenarioPRJP1.node[66].app 	dropPk:count 	140
attr interpolationmode  none
attr source  dropPk
attr title  "packets dropped, count"
scalar scenarioPRJP1.node[66].app 	dropPk:sum(packetBytes) 	71680
attr interpolationmode  none
attr source  dropPk
attr title  "packets dropped, sum(packetBytes)"
scalar scenarioPRJP1.node[66].app 	outOfOrderPk:count 	0
attr interpolationmode  none
attr source  outOfOrderPk
attr title  "packets received out of order, count"
scalar scenarioPRJP1.node[66].app 	outOfOrderPk:sum(packetBytes) 	0
attr interpolationmode  none
attr source  outOfOrderPk
attr title  "packets received out of order, sum(packetBytes)"
scalar scenarioPRJP1.node[66].app 	rcvdPk:count 	1038
attr interpolationmode  none
attr source  rcvdPk
attr title  "packets received, count"
scalar scenarioPRJP1.node[66].app 	rcvdPk:sum(packetBytes) 	531456
attr interpolationmode  none
attr source  rcvdPk
attr title  "packets received, sum(packetBytes)"
statistic scenarioPRJP1.node[66].app 	endToEndDelay:histogram
field count 1038
field mean 4.6685846153733
field stddev 5.6247763963189
field sum 4845.9908307575
field sqrsum 55432.637799118
field min 0.000884403447
field max 19.949491299337
attr interpolationmode  none
attr source  messageAge(rcvdPk)
attr title  "delay, histogram"
attr unit  s
bin	-INF	0
bin	-9.4540437381075	0
bin	-8.1933833388565	0
bin	-6.9327229396055	0
bin	-5.6720625403545	0
bin	-4.4114021411035	0
bin	-3.1507417418525	0
bin	-1.8900813426015	0
bin	-0.6294209433505	418
bin	0.6312394559005	89
bin	1.8918998551515	73
bin	3.1525602544025	53
bin	4.4132206536535	60
bin	5.6738810529045	43
bin	6.9345414521555	42
bin	8.1952018514065	46
bin	9.4558622506575	30
bin	10.716522649908	38
bin	11.977183049159	29
bin	13.23784344841	32
bin	14.498503847661	16
bin	15.759164246912	17
bin	17.019824646163	21
bin	18.280485045414	22
bin	19.541145444665	9
bin	20.801805843916	0
bin	22.062466243167	0
bin	23.323126642418	0
bin	24.583787041669	0
bin	25.84444744092	0
bin	27.105107840171	0
bin	28.365768239422	0
scalar scenarioPRJP1.node[66].app 	sentPk:count 	4842
attr interpolationmode  none
attr source  sentPk
attr title  "packets sent, count"
scalar scenarioPRJP1.node[66].app 	sentPk:sum(packetBytes) 	2479104
attr interpolationmode  none
attr source  sentPk
attr title  "packets sent, sum(packetBytes)"
scalar scenarioPRJP1.node[66].udp 	droppedPkBadChecksum:count 	0
attr interpolationmode  none
attr title  "packets dropped (checksum error), count"
scalar scenarioPRJP1.node[66].udp 	droppedPkWrongPort:count 	0
attr interpolationmode  none
attr title  "packets dropped (wrong port), count"
scalar scenarioPRJP1.node[66].udp 	passedUpPk:count 	1178
attr interpolationmode  none
attr title  "packets passed up, count"
scalar scenarioPRJP1.node[66].udp 	rcvdPk:count 	1178
attr interpolationmode  none
attr source  rcvdPk
attr title  "packets received, count"
scalar scenarioPRJP1.node[66].udp 	rcvdPk:sum(packetBytes) 	612560
attr interpolationmode  none
attr source  rcvdPk
attr title  "packets received, sum(packetBytes)"
scalar scenarioPRJP1.node[66].udp 	sentPk:count 	4842
attr interpolationmode  none
attr source  sentPk
attr title  "packets sent, count"
scalar scenarioPRJP1.node[66].udp 	sentPk:sum(packetBytes) 	2517840
attr interpolationmode  none
attr source  sentPk
attr title  "packets sent, sum(packetBytes)"
scalar scenarioPRJP1.node[66].networkLayer.arp 	failedARPResolution:count 	17
attr title  "ARP failed resolutions, count"
scalar scenarioPRJP1.node[66].networkLayer.arp 	completedARPResolution:count 	1224
attr title  "ARP completed resolutions, count"
scalar scenarioPRJP1.node[66].networkLayer.arp 	initiatedARPResolution:count 	130
attr title  "ARP initiated resolutions, count"
scalar scenarioPRJP1.node[66].networkLayer.arp 	sentReply:count 	112
attr title  "ARP replies sent, count"
scalar scenarioPRJP1.node[66].networkLayer.arp 	sentReq:count 	232
attr title  "ARP request sent, count"
scalar scenarioPRJP1.node[66].manetrouting 	"simulated time" 	1739.2
scalar scenarioPRJP1.node[66].manetrouting 	"Dymo totalSend " 	4680183
scalar scenarioPRJP1.node[66].manetrouting 	"Dymo Rreq send" 	2537733
scalar scenarioPRJP1.node[66].manetrouting 	"Dymo Rreq rec" 	2054090
scalar scenarioPRJP1.node[66].manetrouting 	"Dymo Rrep send" 	12353
scalar scenarioPRJP1.node[66].manetrouting 	"Dymo Rrep rec" 	8031
scalar scenarioPRJP1.node[66].manetrouting 	"Dymo Rerr send" 	21670
scalar scenarioPRJP1.node[66].manetrouting 	"Dymo Rerr rec" 	67895
scalar scenarioPRJP1.node[66].mobility 	startTime 	7.3
scalar scenarioPRJP1.node[66].mobility 	totalTime 	1731.8
scalar scenarioPRJP1.node[66].mobility 	stopTime 	1739.2
scalar scenarioPRJP1.node[66].mobility 	minSpeed 	2.4757908418944e-13
scalar scenarioPRJP1.node[66].mobility 	maxSpeed 	18.204737447923
scalar scenarioPRJP1.node[66].mobility 	totalDistance 	18201.786582894
scalar scenarioPRJP1.node[66].mobility 	totalCO2Emission 	4807.0935426748
scalar scenarioPRJP1.node[66].wlan.mgmt 	dataQueueLen:max 	37
attr interpolationmode  sample-hold
attr title  "data queue length, max"
scalar scenarioPRJP1.node[66].wlan.mgmt 	dataQueueLen:timeavg 	0
attr interpolationmode  sample-hold
attr title  "data queue length, timeavg"
scalar scenarioPRJP1.node[66].wlan.mgmt 	dropPkByQueue:count 	0
attr interpolationmode  none
attr source  dropPkByQueue
attr title  "packets dropped by queue, count"
scalar scenarioPRJP1.node[66].wlan.mgmt 	dropPkByQueue:sum(packetBytes) 	0
attr interpolationmode  none
attr source  dropPkByQueue
attr title  "packets dropped by queue, sum(packetBytes)"
scalar scenarioPRJP1.node[66].wlan.mac 	"number of received packets" 	7215
scalar scenarioPRJP1.node[66].wlan.mac 	"number of collisions" 	104312
scalar scenarioPRJP1.node[66].wlan.mac 	"number of internal collisions" 	0
scalar scenarioPRJP1.node[66].wlan.mac 	"number of retry for AC 0" 	19129
scalar scenarioPRJP1.node[66].wlan.mac 	"number of retry for AC 1" 	3
scalar scenarioPRJP1.node[66].wlan.mac 	"number of retry for AC 2" 	0
scalar scenarioPRJP1.node[66].wlan.mac 	"number of retry for AC 3" 	0
scalar scenarioPRJP1.node[66].wlan.mac 	"sent and received bits" 	65324624
scalar scenarioPRJP1.node[66].wlan.mac 	"sent packet within AC 0" 	6836
scalar scenarioPRJP1.node[66].wlan.mac 	"sent packet within AC 1" 	2
scalar scenarioPRJP1.node[66].wlan.mac 	"sent packet within AC 2" 	0
scalar scenarioPRJP1.node[66].wlan.mac 	"sent packet within AC 3" 	0
scalar scenarioPRJP1.node[66].wlan.mac 	"sent in TXOP " 	0
scalar scenarioPRJP1.node[66].wlan.mac 	"sentWithoutRetry AC 0" 	4646
scalar scenarioPRJP1.node[66].wlan.mac 	"sentWithoutRetry AC 1" 	1
scalar scenarioPRJP1.node[66].wlan.mac 	"sentWithoutRetry AC 2" 	0
scalar scenarioPRJP1.node[66].wlan.mac 	"sentWithoutRetry AC 3" 	0
scalar scenarioPRJP1.node[66].wlan.mac 	"numGivenUp AC 0" 	2157
scalar scenarioPRJP1.node[66].wlan.mac 	"numGivenUp AC 1" 	0
scalar scenarioPRJP1.node[66].wlan.mac 	"numGivenUp AC 2" 	0
scalar scenarioPRJP1.node[66].wlan.mac 	"numGivenUp AC 3" 	0
scalar scenarioPRJP1.node[66].wlan.mac 	"numDropped AC 0" 	0
scalar scenarioPRJP1.node[66].wlan.mac 	"numDropped AC 1" 	0
scalar scenarioPRJP1.node[66].wlan.mac 	"numDropped AC 2" 	0
scalar scenarioPRJP1.node[66].wlan.mac 	"numDropped AC 3" 	0
scalar scenarioPRJP1.node[66].wlan.mac 	rcvdPkFromLL:count 	316346
attr interpolationmode  none
attr source  packetReceivedFromLower
attr title  "packets received from lower layer, count"
scalar scenarioPRJP1.node[66].wlan.mac 	rcvdPkFromLL:sum(packetBytes) 	104385115
attr interpolationmode  none
attr source  packetReceivedFromLower
attr title  "packets received from lower layer, sum(packetBytes)"
scalar scenarioPRJP1.node[66].wlan.mac 	sentDownPk:count 	62106
attr interpolationmode  none
attr source  packetSentToLower
attr title  "packets sent to lower layer, count"
scalar scenarioPRJP1.node[66].wlan.mac 	sentDownPk:sum(packetBytes) 	20343712
attr interpolationmode  none
attr source  packetSentToLower
attr title  "packets sent to lower layer, sum(packetBytes)"
scalar scenarioPRJP1.node[66].wlan.mac 	rcvdPkFromHL:count 	35759
attr interpolationmode  none
attr source  packetReceivedFromUpper
attr title  "packets received from higher layer, count"
scalar scenarioPRJP1.node[66].wlan.mac 	rcvdPkFromHL:sum(packetBytes) 	9394069
attr interpolationmode  none
attr source  packetReceivedFromUpper
attr title  "packets received from higher layer, sum(packetBytes)"
scalar scenarioPRJP1.node[66].wlan.mac 	passedUpPk:count 	100314
attr interpolationmode  none
attr source  packetSentToUpper
attr title  "packets passed to higher layer, count"
scalar scenarioPRJP1.node[66].wlan.mac 	passedUpPk:sum(packetBytes) 	18974428
attr interpolationmode  none
attr source  packetSentToUpper
attr title  "packets passed to higher layer, sum(packetBytes)"
statistic scenarioPRJP1.node[66].wlan.radio 	radioChannel:histogram
field count 1
field mean 3
field stddev -nan
field sum 3
field sqrsum 9
field min 3
field max 3
attr interpolationmode  sample-hold
attr source  radioChannelChanged
attr title  "Radio channel, histogram"
bin	-INF	0
bin	2	0
bin	3	1
bin	4	0
scalar scenarioPRJP1.node[66].wlan.radio 	transmissionState:count 	248424
attr interpolationmode  sample-hold
attr source  transmissionStateChanged
attr title  "Radio transmission state, count"
scalar scenarioPRJP1.node[66].wlan.radio 	receptionState:count 	1571531
attr interpolationmode  sample-hold
attr source  receptionStateChanged
attr title  "Radio reception state, count"
scalar scenarioPRJP1.node[66].wlan.radio 	radioMode:count 	124214
attr interpolationmode  sample-hold
attr source  radioModeChanged
attr title  "Radio mode, count"
statistic scenarioPRJP1.node[66].wlan.radio 	symbolErrorRate:histogram
field count 0
field mean -nan
field stddev -nan
field sum 0
field sqrsum 0
field min -nan
field max -nan
attr source  symbolErrorRate
attr title  "Symbol error rate, histogram"
bin	-INF	0
bin	-0.5	0
bin	-0.46666666666667	0
bin	-0.43333333333333	0
bin	-0.4	0
bin	-0.36666666666667	0
bin	-0.33333333333333	0
bin	-0.3	0
bin	-0.26666666666667	0
bin	-0.23333333333333	0
bin	-0.2	0
bin	-0.16666666666667	0
bin	-0.13333333333333	0
bin	-0.1	0
bin	-0.066666666666667	0
bin	-0.033333333333333	0
bin	0	0
bin	0.033333333333333	0
bin	0.066666666666667	0
bin	0.1	0
bin	0.13333333333333	0
bin	0.16666666666667	0
bin	0.2	0
bin	0.23333333333333	0
bin	0.26666666666667	0
bin	0.3	0
bin	0.33333333333333	0
bin	0.36666666666667	0
bin	0.4	0
bin	0.43333333333333	0
bin	0.46666666666667	0
bin	0.5	0
statistic scenarioPRJP1.node[66].wlan.radio 	bitErrorRate:histogram
field count 0
field mean -nan
field stddev -nan
field sum 0
field sqrsum 0
field min -nan
field max -nan
attr source  bitErrorRate
attr title  "Bit error rate, histogram"
bin	-INF	0
bin	-0.5	0
bin	-0.46666666666667	0
bin	-0.43333333333333	0
bin	-0.4	0
bin	-0.36666666666667	0
bin	-0.33333333333333	0
bin	-0.3	0
bin	-0.26666666666667	0
bin	-0.23333333333333	0
bin	-0.2	0
bin	-0.16666666666667	0
bin	-0.13333333333333	0
bin	-0.1	0
bin	-0.066666666666667	0
bin	-0.033333333333333	0
bin	0	0
bin	0.033333333333333	0
bin	0.066666666666667	0
bin	0.1	0
bin	0.13333333333333	0
bin	0.16666666666667	0
bin	0.2	0
bin	0.23333333333333	0
bin	0.26666666666667	0
bin	0.3	0
bin	0.33333333333333	0
bin	0.36666666666667	0
bin	0.4	0
bin	0.43333333333333	0
bin	0.46666666666667	0
bin	0.5	0
statistic scenarioPRJP1.node[66].wlan.radio 	packetErrorRate:histogram
field count 316346
field mean 0.2986892881184
field stddev 0.44614446303678
field sum 94489.161539102
field sqrsum 91189.75355916
field min 0
field max 1
attr source  packetErrorRate
attr title  "Packet error rate, histogram"
bin	-INF	0
bin	-0.5	0
bin	-0.43333333333333	0
bin	-0.36666666666667	0
bin	-0.3	0
bin	-0.23333333333333	0
bin	-0.16666666666667	0
bin	-0.1	0
bin	-0.033333333333333	208536
bin	0.033333333333333	5255
bin	0.1	2647
bin	0.16666666666667	1823
bin	0.23333333333333	1459
bin	0.3	1143
bin	0.36666666666667	1017
bin	0.43333333333333	947
bin	0.5	943
bin	0.56666666666667	878
bin	0.63333333333333	866
bin	0.7	849
bin	0.76666666666667	1022
bin	0.83333333333333	1215
bin	0.9	1879
bin	0.96666666666667	85867
bin	1.0333333333333	0
bin	1.1	0
bin	1.1666666666667	0
bin	1.2333333333333	0
bin	1.3	0
bin	1.3666666666667	0
bin	1.4333333333333	0
bin	1.5	0
statistic scenarioPRJP1.node[66].wlan.radio 	minSNIR:histogram
field count 316346
field mean 2553.3906197648
field stddev 65540.837924783
field sum 807754909.00013
field sqrsum 1.360954550042e+15
field min 0.00010729783282597
field max 19200815.75148
attr source  minSNIR
attr title  "Min SNIR, histogram"
bin	-INF	0
bin	-508755.31570681	0
bin	-440921.22932822	0
bin	-373087.14294962	0
bin	-305253.05657103	0
bin	-237418.97019244	0
bin	-169584.88381384	0
bin	-101750.79743525	0
bin	-33916.711056658	314163
bin	33917.375321935	1177
bin	101751.46170053	351
bin	169585.54807912	122
bin	237419.63445771	85
bin	305253.72083631	20
bin	373087.8072149	15
bin	440921.89359349	10
bin	508755.97997209	133
bin	576590.06635068	10
bin	644424.15272927	132
bin	712258.23910787	6
bin	780092.32548646	9
bin	847926.41186505	1
bin	915760.49824364	1
bin	983594.58462224	1
bin	1051428.6710008	0
bin	1119262.7573794	1
bin	1187096.843758	0
bin	1254930.9301366	1
bin	1322765.0165152	0
bin	1390599.1028938	3
bin	1458433.1892724	1
bin	1526267.275651	104
scalar scenarioPRJP1.node[66].lo0.lo 	droppedPkBitError:count 	0
attr interpolationmode  none
attr source  dropPkBitError
attr title  "packets dropped/bit error, count"
scalar scenarioPRJP1.node[66].lo0.lo 	droppedPkBitError:sum(packetBytes) 	0
attr interpolationmode  none
attr source  dropPkBitError
attr title  "packets dropped/bit error, sum(packetBytes)"
scalar scenarioPRJP1.node[66].lo0.lo 	rcvdPkFromHL:count 	0
attr interpolationmode  none
attr source  packetReceivedFromUpper
attr title  "packets received from higher layer, count"
scalar scenarioPRJP1.node[66].lo0.lo 	rcvdPkFromHL:sum(packetBytes) 	0
attr interpolationmode  none
attr source  packetReceivedFromUpper
attr title  "packets received from higher layer, sum(packetBytes)"
scalar scenarioPRJP1.node[66].lo0.lo 	passedUpPk:count 	0
attr interpolationmode  none
attr source  packetSentToUpper
attr title  "packets passed to higher layer, count"
scalar scenarioPRJP1.node[66].lo0.lo 	passedUpPk:sum(packetBytes) 	0
attr interpolationmode  none
attr source  packetSentToUpper
attr title  "packets passed to higher layer, sum(packetBytes)"
scalar scenarioPRJP1.node[3].app 	"Total sent" 	4843
scalar scenarioPRJP1.node[3].app 	"Total received" 	1070
scalar scenarioPRJP1.node[3].app 	"Total deleted" 	139
scalar scenarioPRJP1.node[3].app 	dropPk:count 	139
attr interpolationmode  none
attr source  dropPk
attr title  "packets dropped, count"
scalar scenarioPRJP1.node[3].app 	dropPk:sum(packetBytes) 	71168
attr interpolationmode  none
attr source  dropPk
attr title  "packets dropped, sum(packetBytes)"
scalar scenarioPRJP1.node[3].app 	outOfOrderPk:count 	2
attr interpolationmode  none
attr source  outOfOrderPk
attr title  "packets received out of order, count"
scalar scenarioPRJP1.node[3].app 	outOfOrderPk:sum(packetBytes) 	1024
attr interpolationmode  none
attr source  outOfOrderPk
attr title  "packets received out of order, sum(packetBytes)"
scalar scenarioPRJP1.node[3].app 	rcvdPk:count 	1070
attr interpolationmode  none
attr source  rcvdPk
attr title  "packets received, count"
scalar scenarioPRJP1.node[3].app 	rcvdPk:sum(packetBytes) 	547840
attr interpolationmode  none
attr source  rcvdPk
attr title  "packets received, sum(packetBytes)"
statistic scenarioPRJP1.node[3].app 	endToEndDelay:histogram
field count 1070
field mean 4.3668205385732
field stddev 5.5377445538806
field sum 4672.4979762733
field sqrsum 53186.571290604
field min 0.000891044313
field max 19.947584534648
attr interpolationmode  none
attr source  messageAge(rcvdPk)
attr title  "delay, histogram"
attr unit  s
bin	-INF	0
bin	-7.8470252746995	0
bin	-6.8006363759196	0
bin	-5.7542474771396	0
bin	-4.7078585783597	0
bin	-3.6614696795798	0
bin	-2.6150807807998	0
bin	-1.5686918820199	0
bin	-0.52230298323997	458
bin	0.52408591553997	86
bin	1.5704748143199	60
bin	2.6168637130998	46
bin	3.6632526118798	41
bin	4.7096415106597	36
bin	5.7560304094396	36
bin	6.8024193082196	41
bin	7.8488082069995	45
bin	8.8951971057794	31
bin	9.9415860045594	34
bin	10.987974903339	15
bin	12.034363802119	20
bin	13.080752700899	26
bin	14.127141599679	20
bin	15.173530498459	15
bin	16.219919397239	18
bin	17.266308296019	18
bin	18.312697194799	15
bin	19.359086093579	9
bin	20.405474992359	0
bin	21.451863891139	0
bin	22.498252789919	0
bin	23.544641688698	0
scalar scenarioPRJP1.node[3].app 	sentPk:count 	4843
attr interpolationmode  none
attr source  sentPk
attr title  "packets sent, count"
scalar scenarioPRJP1.node[3].app 	sentPk:sum(packetBytes) 	2479616
attr interpolationmode  none
attr source  sentPk
attr title  "packets sent, sum(packetBytes)"
scalar scenarioPRJP1.node[3].udp 	droppedPkBadChecksum:count 	0
attr interpolationmode  none
attr title  "packets dropped (checksum error), count"
scalar scenarioPRJP1.node[3].udp 	droppedPkWrongPort:count 	0
attr interpolationmode  none
attr title  "packets dropped (wrong port), count"
scalar scenarioPRJP1.node[3].udp 	passedUpPk:count 	1211
attr interpolationmode  none
attr title  "packets passed up, count"
scalar scenarioPRJP1.node[3].udp 	rcvdPk:count 	1211
attr interpolationmode  none
attr source  rcvdPk
attr title  "packets received, count"
scalar scenarioPRJP1.node[3].udp 	rcvdPk:sum(packetBytes) 	629720
attr interpolationmode  none
attr source  rcvdPk
attr title  "packets received, sum(packetBytes)"
scalar scenarioPRJP1.node[3].udp 	sentPk:count 	4843
attr interpolationmode  none
attr source  sentPk
attr title  "packets sent, count"
scalar scenarioPRJP1.node[3].udp 	sentPk:sum(packetBytes) 	2518360
attr interpolationmode  none
attr source  sentPk
attr title  "packets sent, sum(packetBytes)"
scalar scenarioPRJP1.node[3].networkLayer.arp 	failedARPResolution:count 	17
attr title  "ARP failed resolutions, count"
scalar scenarioPRJP1.node[3].networkLayer.arp 	completedARPResolution:count 	1616
attr title  "ARP completed resolutions, count"
scalar scenarioPRJP1.node[3].networkLayer.arp 	initiatedARPResolution:count 	160
attr title  "ARP initiated resolutions, count"
scalar scenarioPRJP1.node[3].networkLayer.arp 	sentReply:count 	95
attr title  "ARP replies sent, count"
scalar scenarioPRJP1.node[3].networkLayer.arp 	sentReq:count 	269
attr title  "ARP request sent, count"
scalar scenarioPRJP1.node[3].mobility 	startTime 	0.1
scalar scenarioPRJP1.node[3].mobility 	totalTime 	1743.6
scalar scenarioPRJP1.node[3].mobility 	stopTime 	1743.8
scalar scenarioPRJP1.node[3].mobility 	minSpeed 	2.4754415789624e-13
scalar scenarioPRJP1.node[3].mobility 	maxSpeed 	19.537693317051
scalar scenarioPRJP1.node[3].mobility 	totalDistance 	18977.133106395
scalar scenarioPRJP1.node[3].mobility 	totalCO2Emission 	5135.2478459895
scalar scenarioPRJP1.node[3].wlan.mgmt 	dataQueueLen:max 	48
attr interpolationmode  sample-hold
attr title  "data queue length, max"
scalar scenarioPRJP1.node[3].wlan.mgmt 	dataQueueLen:timeavg 	0
attr interpolationmode  sample-hold
attr title  "data queue length, timeavg"
scalar scenarioPRJP1.node[3].wlan.mgmt 	dropPkByQueue:count 	0
attr interpolationmode  none
attr source  dropPkByQueue
attr title  "packets dropped by queue, count"
scalar scenarioPRJP1.node[3].wlan.mgmt 	dropPkByQueue:sum(packetBytes) 	0
attr interpolationmode  none
attr source  dropPkByQueue
attr title  "packets dropped by queue, sum(packetBytes)"
scalar scenarioPRJP1.node[3].wlan.mac 	"number of received packets" 	5926
scalar scenarioPRJP1.node[3].wlan.mac 	"number of collisions" 	119993
scalar scenarioPRJP1.node[3].wlan.mac 	"number of internal collisions" 	0
scalar scenarioPRJP1.node[3].wlan.mac 	"number of retry for AC 0" 	17673
scalar scenarioPRJP1.node[3].wlan.mac 	"number of retry for AC 1" 	6
scalar scenarioPRJP1.node[3].wlan.mac 	"number of retry for AC 2" 	0
scalar scenarioPRJP1.node[3].wlan.mac 	"number of retry for AC 3" 	0
scalar scenarioPRJP1.node[3].wlan.mac 	"sent and received bits" 	63066520
scalar scenarioPRJP1.node[3].wlan.mac 	"sent packet within AC 0" 	6039
scalar scenarioPRJP1.node[3].wlan.mac 	"sent packet within AC 1" 	4
scalar scenarioPRJP1.node[3].wlan.mac 	"sent packet within AC 2" 	0
scalar scenarioPRJP1.node[3].wlan.mac 	"sent packet within AC 3" 	0
scalar scenarioPRJP1.node[3].wlan.mac 	"sent in TXOP " 	0
scalar scenarioPRJP1.node[3].wlan.mac 	"sentWithoutRetry AC 0" 	3916
scalar scenarioPRJP1.node[3].wlan.mac 	"sentWithoutRetry AC 1" 	3
scalar scenarioPRJP1.node[3].wlan.mac 	"sentWithoutRetry AC 2" 	0
scalar scenarioPRJP1.node[3].wlan.mac 	"sentWithoutRetry AC 3" 	0
scalar scenarioPRJP1.node[3].wlan.mac 	"numGivenUp AC 0" 	1938
scalar scenarioPRJP1.node[3].wlan.mac 	"numGivenUp AC 1" 	0
scalar scenarioPRJP1.node[3].wlan.mac 	"numGivenUp AC 2" 	0
scalar scenarioPRJP1.node[3].wlan.mac 	"numGivenUp AC 3" 	0
scalar scenarioPRJP1.node[3].wlan.mac 	"numDropped AC 0" 	3
scalar scenarioPRJP1.node[3].wlan.mac 	"numDropped AC 1" 	0
scalar scenarioPRJP1.node[3].wlan.mac 	"numDropped AC 2" 	0
scalar scenarioPRJP1.node[3].wlan.mac 	"numDropped AC 3" 	0
scalar scenarioPRJP1.node[3].wlan.mac 	rcvdPkFromLL:count 	390281
attr interpolationmode  none
attr source  packetReceivedFromLower
attr title  "packets received from lower layer, count"
scalar scenarioPRJP1.node[3].wlan.mac 	rcvdPkFromLL:sum(packetBytes) 	129673302
attr interpolationmode  none
attr source  packetReceivedFromLower
attr title  "packets received from lower layer, sum(packetBytes)"
scalar scenarioPRJP1.node[3].wlan.mac 	sentDownPk:count 	59382
attr interpolationmode  none
attr source  packetSentToLower
attr title  "packets sent to lower layer, count"
scalar scenarioPRJP1.node[3].wlan.mac 	sentDownPk:sum(packetBytes) 	19085624
attr interpolationmode  none
attr source  packetSentToLower
attr title  "packets sent to lower layer, sum(packetBytes)"
scalar scenarioPRJP1.node[3].wlan.mac 	rcvdPkFromHL:count 	35780
attr interpolationmode  none
attr source  packetReceivedFromUpper
attr title  "packets received from higher layer, count"
scalar scenarioPRJP1.node[3].wlan.mac 	rcvdPkFromHL:sum(packetBytes) 	8990428
attr interpolationmode  none
attr source  packetReceivedFromUpper
attr title  "packets received from higher layer, sum(packetBytes)"
scalar scenarioPRJP1.node[3].wlan.mac 	passedUpPk:count 	126044
attr interpolationmode  none
attr source  packetSentToUpper
attr title  "packets passed to higher layer, count"
scalar scenarioPRJP1.node[3].wlan.mac 	passedUpPk:sum(packetBytes) 	22589199
attr interpolationmode  none
attr source  packetSentToUpper
attr title  "packets passed to higher layer, sum(packetBytes)"
statistic scenarioPRJP1.node[3].wlan.radio 	radioChannel:histogram
field count 1
field mean 3
field stddev -nan
field sum 3
field sqrsum 9
field min 3
field max 3
attr interpolationmode  sample-hold
attr source  radioChannelChanged
attr title  "Radio channel, histogram"
bin	-INF	0
bin	2	0
bin	3	1
bin	4	0
scalar scenarioPRJP1.node[3].wlan.radio 	transmissionState:count 	237528
attr interpolationmode  sample-hold
attr source  transmissionStateChanged
attr title  "Radio transmission state, count"
scalar scenarioPRJP1.node[3].wlan.radio 	receptionState:count 	1729772
attr interpolationmode  sample-hold
attr source  receptionStateChanged
attr title  "Radio reception state, count"
scalar scenarioPRJP1.node[3].wlan.radio 	radioMode:count 	118766
attr interpolationmode  sample-hold
attr source  radioModeChanged
attr title  "Radio mode, count"
statistic scenarioPRJP1.node[3].wlan.radio 	symbolErrorRate:histogram
field count 0
field mean -nan
field stddev -nan
field sum 0
field sqrsum 0
field min -nan
field max -nan
attr source  symbolErrorRate
attr title  "Symbol error rate, histogram"
bin	-INF	0
bin	-0.5	0
bin	-0.46666666666667	0
bin	-0.43333333333333	0
bin	-0.4	0
bin	-0.36666666666667	0
bin	-0.33333333333333	0
bin	-0.3	0
bin	-0.26666666666667	0
bin	-0.23333333333333	0
bin	-0.2	0
bin	-0.16666666666667	0
bin	-0.13333333333333	0
bin	-0.1	0
bin	-0.066666666666667	0
bin	-0.033333333333333	0
bin	0	0
bin	0.033333333333333	0
bin	0.066666666666667	0
bin	0.1	0
bin	0.13333333333333	0
bin	0.16666666666667	0
bin	0.2	0
bin	0.23333333333333	0
bin	0.26666666666667	0
bin	0.3	0
bin	0.33333333333333	0
bin	0.36666666666667	0
bin	0.4	0
bin	0.43333333333333	0
bin	0.46666666666667	0
bin	0.5	0
statistic scenarioPRJP1.node[3].wlan.radio 	bitErrorRate:histogram
field count 0
field mean -nan
field stddev -nan
field sum 0
field sqrsum 0
field min -nan
field max -nan
attr source  bitErrorRate
attr title  "Bit error rate, histogram"
bin	-INF	0
bin	-0.5	0
bin	-0.46666666666667	0
bin	-0.43333333333333	0
bin	-0.4	0
bin	-0.36666666666667	0
bin	-0.33333333333333	0
bin	-0.3	0
bin	-0.26666666666667	0
bin	-0.23333333333333	0
bin	-0.2	0
bin	-0.16666666666667	0
bin	-0.13333333333333	0
bin	-0.1	0
bin	-0.066666666666667	0
bin	-0.033333333333333	0
bin	0	0
bin	0.033333333333333	0
bin	0.066666666666667	0
bin	0.1	0
bin	0.13333333333333	0
bin	0.16666666666667	0
bin	0.2	0
bin	0.23333333333333	0
bin	0.26666666666667	0
bin	0.3	0
bin	0.33333333333333	0
bin	0.36666666666667	0
bin	0.4	0
bin	0.43333333333333	0
bin	0.46666666666667	0
bin	0.5	0
statistic scenarioPRJP1.node[3].wlan.radio 	packetErrorRate:histogram
field count 390281
field mean 0.27948834298874
field stddev 0.43739538056757
field sum 109078.98998999
field sqrsum 105152.61467581
field min 0
field max 1
attr source  packetErrorRate
attr title  "Packet error rate, histogram"
bin	-INF	0
bin	-0.5	0
bin	-0.43333333333333	0
bin	-0.36666666666667	0
bin	-0.3	0
bin	-0.23333333333333	0
bin	-0.16666666666667	0
bin	-0.1	0
bin	-0.033333333333333	265389
bin	0.033333333333333	6203
bin	0.1	3076
bin	0.16666666666667	2208
bin	0.23333333333333	1702
bin	0.3	1421
bin	0.36666666666667	1265
bin	0.43333333333333	1121
bin	0.5	1103
bin	0.56666666666667	1092
bin	0.63333333333333	981
bin	0.7	1096
bin	0.76666666666667	1178
bin	0.83333333333333	1321
bin	0.9	2237
bin	0.96666666666667	98888
bin	1.0333333333333	0
bin	1.1	0
bin	1.1666666666667	0
bin	1.2333333333333	0
bin	1.3	0
bin	1.3666666666667	0
bin	1.4333333333333	0
bin	1.5	0
statistic scenarioPRJP1.node[3].wlan.radio 	minSNIR:histogram
field count 390281
field mean 4478.5340342109
field stddev 85487.183993131
field sum 1747886741.4058
field sqrsum 2.8600170912344e+15
field min 0.00013298369004848
field max 3012958.8769377
attr source  minSNIR
attr title  "Min SNIR, histogram"
bin	-INF	0
bin	-54783.022768128	0
bin	-47478.476259263	0
bin	-40173.929750397	0
bin	-32869.383241532	0
bin	-25564.836732667	0
bin	-18260.290223802	0
bin	-10955.743714937	0
bin	-3651.1972060717	372852
bin	3653.3493027934	9033
bin	10957.895811659	2998
bin	18262.442320524	923
bin	25566.988829389	571
bin	32871.535338254	349
bin	40176.081847119	221
bin	47480.628355984	418
bin	54785.174864849	222
bin	62089.721373715	192
bin	69394.26788258	130
bin	76698.814391445	111
bin	84003.36090031	366
bin	91307.907409175	147
bin	98612.45391804	43
bin	105917.00042691	52
bin	113221.54693577	61
bin	120526.09344464	72
bin	127830.6399535	111
bin	135135.18646237	39
bin	142439.73297123	23
bin	149744.2794801	104
bin	157048.82598896	22
bin	164353.37249783	1221
scalar scenarioPRJP1.node[3].lo0.lo 	droppedPkBitError:count 	0
attr interpolationmode  none
attr source  dropPkBitError
attr title  "packets dropped/bit error, count"
scalar scenarioPRJP1.node[3].lo0.lo 	droppedPkBitError:sum(packetBytes) 	0
attr interpolationmode  none
attr source  dropPkBitError
attr title  "packets dropped/bit error, sum(packetBytes)"
scalar scenarioPRJP1.node[3].lo0.lo 	rcvdPkFromHL:count 	0
attr interpolationmode  none
attr source  packetReceivedFromUpper
attr title  "packets received from higher layer, count"
scalar scenarioPRJP1.node[3].lo0.lo 	rcvdPkFromHL:sum(packetBytes) 	0
attr interpolationmode  none
attr source  packetReceivedFromUpper
attr title  "packets received from higher layer, sum(packetBytes)"
scalar scenarioPRJP1.node[3].lo0.lo 	passedUpPk:count 	0
attr interpolationmode  none
attr source  packetSentToUpper
attr title  "packets passed to higher layer, count"
scalar scenarioPRJP1.node[3].lo0.lo 	passedUpPk:sum(packetBytes) 	0
attr interpolationmode  none
attr source  packetSentToUpper
attr title  "packets passed to higher layer, sum(packetBytes)"
scalar scenarioPRJP1.node[19].app 	"Total sent" 	5014
scalar scenarioPRJP1.node[19].app 	"Total received" 	1111
scalar scenarioPRJP1.node[19].app 	"Total deleted" 	162
scalar scenarioPRJP1.node[19].app 	dropPk:count 	162
attr interpolationmode  none
attr source  dropPk
attr title  "packets dropped, count"
scalar scenarioPRJP1.node[19].app 	dropPk:sum(packetBytes) 	82944
attr interpolationmode  none
attr source  dropPk
attr title  "packets dropped, sum(packetBytes)"
scalar scenarioPRJP1.node[19].app 	outOfOrderPk:count 	1
attr interpolationmode  none
attr source  outOfOrderPk
attr title  "packets received out of order, count"
scalar scenarioPRJP1.node[19].app 	outOfOrderPk:sum(packetBytes) 	512
attr interpolationmode  none
attr source  outOfOrderPk
attr title  "packets received out of order, sum(packetBytes)"
scalar scenarioPRJP1.node[19].app 	rcvdPk:count 	1111
attr interpolationmode  none
attr source  rcvdPk
attr title  "packets received, count"
scalar scenarioPRJP1.node[19].app 	rcvdPk:sum(packetBytes) 	568832
attr interpolationmode  none
attr source  rcvdPk
attr title  "packets received, sum(packetBytes)"
statistic scenarioPRJP1.node[19].app 	endToEndDelay:histogram
field count 1111
field mean 4.373035071435
field stddev 5.5785153313167
field sum 4858.4419643642
field sqrsum 55789.152067622
field min 0.000891029108
field max 19.976443328318
attr interpolationmode  none
attr source  messageAge(rcvdPk)
attr title  "delay, histogram"
attr unit  s
bin	-INF	0
bin	-9.9638778205385	0
bin	-8.6352407692278	0
bin	-7.306603717917	0
bin	-5.9779666666063	0
bin	-4.6493296152956	0
bin	-3.3206925639848	0
bin	-1.9920555126741	0
bin	-0.66341846136337	492
bin	0.66521858994737	103
bin	1.9938556412581	76
bin	3.3224926925688	50
bin	4.6511297438796	57
bin	5.9797667951903	38
bin	7.308403846501	43
bin	8.6370408978118	35
bin	9.9656779491225	35
bin	11.294315000433	37
bin	12.622952051744	40
bin	13.951589103055	33
bin	15.280226154365	24
bin	16.608863205676	20
bin	17.937500256987	14
bin	19.266137308298	14
bin	20.594774359608	0
bin	21.923411410919	0
bin	23.25204846223	0
bin	24.580685513541	0
bin	25.909322564851	0
bin	27.237959616162	0
bin	28.566596667473	0
bin	29.895233718784	0
scalar scenarioPRJP1.node[19].app 	sentPk:count 	5014
attr interpolationmode  none
attr source  sentPk
attr title  "packets sent, count"
scalar scenarioPRJP1.node[19].app 	sentPk:sum(packetBytes) 	2567168
attr interpolationmode  none
attr source  sentPk
attr title  "packets sent, sum(packetBytes)"
scalar scenarioPRJP1.node[19].udp 	droppedPkBadChecksum:count 	0
attr interpolationmode  none
attr title  "packets dropped (checksum error), count"
scalar scenarioPRJP1.node[19].udp 	droppedPkWrongPort:count 	0
attr interpolationmode  none
attr title  "packets dropped (wrong port), count"
scalar scenarioPRJP1.node[19].udp 	passedUpPk:count 	1274
attr interpolationmode  none
attr title  "packets passed up, count"
scalar scenarioPRJP1.node[19].udp 	rcvdPk:count 	1274
attr interpolationmode  none
attr source  rcvdPk
attr title  "packets received, count"
scalar scenarioPRJP1.node[19].udp 	rcvdPk:sum(packetBytes) 	662480
attr interpolationmode  none
attr source  rcvdPk
attr title  "packets received, sum(packetBytes)"
scalar scenarioPRJP1.node[19].udp 	sentPk:count 	5014
attr interpolationmode  none
attr source  sentPk
attr title  "packets sent, count"
scalar scenarioPRJP1.node[19].udp 	sentPk:sum(packetBytes) 	2607280
attr interpolationmode  none
attr source  sentPk
attr title  "packets sent, sum(packetBytes)"
scalar scenarioPRJP1.node[19].networkLayer.arp 	failedARPResolution:count 	28
attr title  "ARP failed resolutions, count"
scalar scenarioPRJP1.node[19].networkLayer.arp 	completedARPResolution:count 	1433
attr title  "ARP completed resolutions, count"
scalar scenarioPRJP1.node[19].networkLayer.arp 	initiatedARPResolution:count 	177
attr title  "ARP initiated resolutions, count"
scalar scenarioPRJP1.node[19].networkLayer.arp 	sentReply:count 	111
attr title  "ARP replies sent, count"
scalar scenarioPRJP1.node[19].networkLayer.arp 	sentReq:count 	316
attr title  "ARP request sent, count"
scalar scenarioPRJP1.node[19].mobility 	startTime 	0.1
scalar scenarioPRJP1.node[19].mobility 	totalTime 	1805.4
scalar scenarioPRJP1.node[19].mobility 	stopTime 	1805.6
scalar scenarioPRJP1.node[19].mobility 	minSpeed 	2.4754905940787e-13
scalar scenarioPRJP1.node[19].mobility 	maxSpeed 	19.998509622037
scalar scenarioPRJP1.node[19].mobility 	totalDistance 	19993.979013945
scalar scenarioPRJP1.node[19].mobility 	totalCO2Emission 	5446.9119589294
scalar scenarioPRJP1.node[19].wlan.mgmt 	dataQueueLen:max 	56
attr interpolationmode  sample-hold
attr title  "data queue length, max"
scalar scenarioPRJP1.node[19].wlan.mgmt 	dataQueueLen:timeavg 	0.0077291825805417
attr interpolationmode  sample-hold
attr title  "data queue length, timeavg"
scalar scenarioPRJP1.node[19].wlan.mgmt 	dropPkByQueue:count 	0
attr interpolationmode  none
attr source  dropPkByQueue
attr title  "packets dropped by queue, count"
scalar scenarioPRJP1.node[19].wlan.mgmt 	dropPkByQueue:sum(packetBytes) 	0
attr interpolationmode  none
attr source  dropPkByQueue
attr title  "packets dropped by queue, sum(packetBytes)"
scalar scenarioPRJP1.node[19].wlan.mac 	"number of received packets" 	8101
scalar scenarioPRJP1.node[19].wlan.mac 	"number of collisions" 	135652
scalar scenarioPRJP1.node[19].wlan.mac 	"number of internal collisions" 	0
scalar scenarioPRJP1.node[19].wlan.mac 	"number of retry for AC 0" 	18608
scalar scenarioPRJP1.node[19].wlan.mac 	"number of retry for AC 1" 	0
scalar scenarioPRJP1.node[19].wlan.mac 	"number of retry for AC 2" 	0
scalar scenarioPRJP1.node[19].wlan.mac 	"number of retry for AC 3" 	0
scalar scenarioPRJP1.node[19].wlan.mac 	"sent and received bits" 	72920960
scalar scenarioPRJP1.node[19].wlan.mac 	"sent packet within AC 0" 	7955
scalar scenarioPRJP1.node[19].wlan.mac 	"sent packet within AC 1" 	2
scalar scenarioPRJP1.node[19].wlan.mac 	"sent packet within AC 2" 	0
scalar scenarioPRJP1.node[19].wlan.mac 	"sent packet within AC 3" 	0
scalar scenarioPRJP1.node[19].wlan.mac 	"sent in TXOP " 	0
scalar scenarioPRJP1.node[19].wlan.mac 	"sentWithoutRetry AC 0" 	5476
scalar scenarioPRJP1.node[19].wlan.mac 	"sentWithoutRetry AC 1" 	2
scalar scenarioPRJP1.node[19].wlan.mac 	"sentWithoutRetry AC 2" 	0
scalar scenarioPRJP1.node[19].wlan.mac 	"sentWithoutRetry AC 3" 	0
scalar scenarioPRJP1.node[19].wlan.mac 	"numGivenUp AC 0" 	1946
scalar scenarioPRJP1.node[19].wlan.mac 	"numGivenUp AC 1" 	0
scalar scenarioPRJP1.node[19].wlan.mac 	"numGivenUp AC 2" 	0
scalar scenarioPRJP1.node[19].wlan.mac 	"numGivenUp AC 3" 	0
scalar scenarioPRJP1.node[19].wlan.mac 	"numDropped AC 0" 	28
scalar scenarioPRJP1.node[19].wlan.mac 	"numDropped AC 1" 	0
scalar scenarioPRJP1.node[19].wlan.mac 	"numDropped AC 2" 	0
scalar scenarioPRJP1.node[19].wlan.mac 	"numDropped AC 3" 	0
scalar scenarioPRJP1.node[19].wlan.mac 	rcvdPkFromLL:count 	394103
attr interpolationmode  none
attr source  packetReceivedFromLower
attr title  "packets received from lower layer, count"
scalar scenarioPRJP1.node[19].wlan.mac 	rcvdPkFromLL:sum(packetBytes) 	130987612
attr interpolationmode  none
attr source  packetReceivedFromLower
attr title  "packets received from lower layer, sum(packetBytes)"
scalar scenarioPRJP1.node[19].wlan.mac 	sentDownPk:count 	65142
attr interpolationmode  none
attr source  packetSentToLower
attr title  "packets sent to lower layer, count"
scalar scenarioPRJP1.node[19].wlan.mac 	sentDownPk:sum(packetBytes) 	20878545
attr interpolationmode  none
attr source  packetSentToLower
attr title  "packets sent to lower layer, sum(packetBytes)"
scalar scenarioPRJP1.node[19].wlan.mac 	rcvdPkFromHL:count 	38461
attr interpolationmode  none
attr source  packetReceivedFromUpper
attr title  "packets received from higher layer, count"
scalar scenarioPRJP1.node[19].wlan.mac 	rcvdPkFromHL:sum(packetBytes) 	10234460
attr interpolationmode  none
attr source  packetReceivedFromUpper
attr title  "packets received from higher layer, sum(packetBytes)"
scalar scenarioPRJP1.node[19].wlan.mac 	passedUpPk:count 	118404
attr interpolationmode  none
attr source  packetSentToUpper
attr title  "packets passed to higher layer, count"
scalar scenarioPRJP1.node[19].wlan.mac 	passedUpPk:sum(packetBytes) 	22348005
attr interpolationmode  none
attr source  packetSentToUpper
attr title  "packets passed to higher layer, sum(packetBytes)"
statistic scenarioPRJP1.node[19].wlan.radio 	radioChannel:histogram
field count 1
field mean 3
field stddev -nan
field sum 3
field sqrsum 9
field min 3
field max 3
attr interpolationmode  sample-hold
attr source  radioChannelChanged
attr title  "Radio channel, histogram"
bin	-INF	0
bin	2	0
bin	3	1
bin	4	0
scalar scenarioPRJP1.node[19].wlan.radio 	transmissionState:count 	260568
attr interpolationmode  sample-hold
attr source  transmissionStateChanged
attr title  "Radio transmission state, count"
scalar scenarioPRJP1.node[19].wlan.radio 	receptionState:count 	1902487
attr interpolationmode  sample-hold
attr source  receptionStateChanged
attr title  "Radio reception state, count"
scalar scenarioPRJP1.node[19].wlan.radio 	radioMode:count 	130286
attr interpolationmode  sample-hold
attr source  radioModeChanged
attr title  "Radio mode, count"
statistic scenarioPRJP1.node[19].wlan.radio 	symbolErrorRate:histogram
field count 0
field mean -nan
field stddev -nan
field sum 0
field sqrsum 0
field min -nan
field max -nan
attr source  symbolErrorRate
attr title  "Symbol error rate, histogram"
bin	-INF	0
bin	-0.5	0
bin	-0.46666666666667	0
bin	-0.43333333333333	0
bin	-0.4	0
bin	-0.36666666666667	0
bin	-0.33333333333333	0
bin	-0.3	0
bin	-0.26666666666667	0
bin	-0.23333333333333	0
bin	-0.2	0
bin	-0.16666666666667	0
bin	-0.13333333333333	0
bin	-0.1	0
bin	-0.066666666666667	0
bin	-0.033333333333333	0
bin	0	0
bin	0.033333333333333	0
bin	0.066666666666667	0
bin	0.1	0
bin	0.13333333333333	0
bin	0.16666666666667	0
bin	0.2	0
bin	0.23333333333333	0
bin	0.26666666666667	0
bin	0.3	0
bin	0.33333333333333	0
bin	0.36666666666667	0
bin	0.4	0
bin	0.43333333333333	0
bin	0.46666666666667	0
bin	0.5	0
statistic scenarioPRJP1.node[19].wlan.radio 	bitErrorRate:histogram
field count 0
field mean -nan
field stddev -nan
field sum 0
field sqrsum 0
field min -nan
field max -nan
attr source  bitErrorRate
attr title  "Bit error rate, histogram"
bin	-INF	0
bin	-0.5	0
bin	-0.46666666666667	0
bin	-0.43333333333333	0
bin	-0.4	0
bin	-0.36666666666667	0
bin	-0.33333333333333	0
bin	-0.3	0
bin	-0.26666666666667	0
bin	-0.23333333333333	0
bin	-0.2	0
bin	-0.16666666666667	0
bin	-0.13333333333333	0
bin	-0.1	0
bin	-0.066666666666667	0
bin	-0.033333333333333	0
bin	0	0
bin	0.033333333333333	0
bin	0.066666666666667	0
bin	0.1	0
bin	0.13333333333333	0
bin	0.16666666666667	0
bin	0.2	0
bin	0.23333333333333	0
bin	0.26666666666667	0
bin	0.3	0
bin	0.33333333333333	0
bin	0.36666666666667	0
bin	0.4	0
bin	0.43333333333333	0
bin	0.46666666666667	0
bin	0.5	0
statistic scenarioPRJP1.node[19].wlan.radio 	packetErrorRate:histogram
field count 394103
field mean 0.31344630232546
field stddev 0.45240851322198
field sum 123530.12808537
field sqrsum 119382.28292463
field min 0
field max 1
attr source  packetErrorRate
attr title  "Packet error rate, histogram"
bin	-INF	0
bin	-0.00080176605714866	0
bin	-0.0006948639161955	0
bin	-0.00058796177524235	0
bin	-0.00048105963428919	0
bin	-0.00037415749333604	0
bin	-0.00026725535238289	0
bin	-0.00016035321142973	0
bin	-5.3451070476577e-05	222404
bin	5.3451070476577e-05	4715
bin	0.00016035321142973	2322
bin	0.00026725535238289	1524
bin	0.00037415749333604	1166
bin	0.00048105963428919	939
bin	0.00058796177524235	816
bin	0.0006948639161955	628
bin	0.00080176605714866	585
bin	0.00090866819810181	556
bin	0.001015570339055	476
bin	0.0011224724800081	406
bin	0.0012293746209613	400
bin	0.0013362767619144	403
bin	0.0014431789028676	359
bin	0.0015500810438207	297
bin	0.0016569831847739	282
bin	0.001763885325727	279
bin	0.0018707874666802	294
bin	0.0019776896076334	238
bin	0.0020845917485865	281
bin	0.0021914938895397	240
bin	0.0022983960304928	224
bin	0.002405298171446	154269
statistic scenarioPRJP1.node[19].wlan.radio 	minSNIR:histogram
field count 394103
field mean 3786.9340228079
field stddev 76389.037995289
field sum 1492442059.1907
field sqrsum 2.3053493182771e+15
field min 0.00013886809517875
field max 3012958.8769377
attr source  minSNIR
attr title  "Min SNIR, histogram"
bin	-INF	0
bin	-52444.038056582	0
bin	-45451.131116354	0
bin	-38458.224176126	0
bin	-31465.317235898	0
bin	-24472.41029567	0
bin	-17479.503355442	0
bin	-10486.596415214	0
bin	-3493.6894749854	380399
bin	3499.2174652427	6802
bin	10492.124405471	2035
bin	17485.031345699	630
bin	24477.938285927	342
bin	31470.845226155	271
bin	38463.752166383	226
bin	45456.659106611	318
bin	52449.566046839	111
bin	59442.472987068	211
bin	66435.379927296	143
bin	73428.286867524	752
bin	80421.193807752	133
bin	87414.10074798	290
bin	94407.007688208	75
bin	101399.91462844	40
bin	108392.82156866	34
bin	115385.72850889	37
bin	122378.63544912	37
bin	129371.54238935	49
bin	136364.44932958	17
bin	143357.3562698	41
bin	150350.26321003	49
bin	157343.17015026	1061
scalar scenarioPRJP1.node[19].lo0.lo 	droppedPkBitError:count 	0
attr interpolationmode  none
attr source  dropPkBitError
attr title  "packets dropped/bit error, count"
scalar scenarioPRJP1.node[19].lo0.lo 	droppedPkBitError:sum(packetBytes) 	0
attr interpolationmode  none
attr source  dropPkBitError
attr title  "packets dropped/bit error, sum(packetBytes)"
scalar scenarioPRJP1.node[19].lo0.lo 	rcvdPkFromHL:count 	0
attr interpolationmode  none
attr source  packetReceivedFromUpper
attr title  "packets received from higher layer, count"
scalar scenarioPRJP1.node[19].lo0.lo 	rcvdPkFromHL:sum(packetBytes) 	0
attr interpolationmode  none
attr source  packetReceivedFromUpper
attr title  "packets received from higher layer, sum(packetBytes)"
scalar scenarioPRJP1.node[19].lo0.lo 	passedUpPk:count 	0
attr interpolationmode  none
attr source  packetSentToUpper
attr title  "packets passed to higher layer, count"
scalar scenarioPRJP1.node[19].lo0.lo 	passedUpPk:sum(packetBytes) 	0
attr interpolationmode  none
attr source  packetSentToUpper
attr title  "packets passed to higher layer, sum(packetBytes)"
scalar scenarioPRJP1.node[54].app 	"Total sent" 	5008
scalar scenarioPRJP1.node[54].app 	"Total received" 	980
scalar scenarioPRJP1.node[54].app 	"Total deleted" 	151
scalar scenarioPRJP1.node[54].app 	dropPk:count 	151
attr interpolationmode  none
attr source  dropPk
attr title  "packets dropped, count"
scalar scenarioPRJP1.node[54].app 	dropPk:sum(packetBytes) 	77312
attr interpolationmode  none
attr source  dropPk
attr title  "packets dropped, sum(packetBytes)"
scalar scenarioPRJP1.node[54].app 	outOfOrderPk:count 	1
attr interpolationmode  none
attr source  outOfOrderPk
attr title  "packets received out of order, count"
scalar scenarioPRJP1.node[54].app 	outOfOrderPk:sum(packetBytes) 	512
attr interpolationmode  none
attr source  outOfOrderPk
attr title  "packets received out of order, sum(packetBytes)"
scalar scenarioPRJP1.node[54].app 	rcvdPk:count 	980
attr interpolationmode  none
attr source  rcvdPk
attr title  "packets received, count"
scalar scenarioPRJP1.node[54].app 	rcvdPk:sum(packetBytes) 	501760
attr interpolationmode  none
attr source  rcvdPk
attr title  "packets received, sum(packetBytes)"
statistic scenarioPRJP1.node[54].app 	endToEndDelay:histogram
field count 980
field mean 4.1512409087363
field stddev 5.3719759018911
field sum 4068.2160905616
field sqrsum 45140.249524317
field min 0.000891022685
field max 19.959458809099
attr interpolationmode  none
attr source  messageAge(rcvdPk)
attr title  "delay, histogram"
attr unit  s
bin	-INF	0
bin	-9.758305075678	0
bin	-8.4570764962163	0
bin	-7.1558479167545	0
bin	-5.8546193372928	0
bin	-4.5533907578311	0
bin	-3.2521621783693	0
bin	-1.9509335989076	0
bin	-0.64970501944587	424
bin	0.65152356001587	92
bin	1.9527521394776	76
bin	3.2539807189393	53
bin	4.5552092984011	51
bin	5.8564378778628	52
bin	7.1576664573245	35
bin	8.4588950367863	32
bin	9.760123616248	22
bin	11.06135219571	28
bin	12.362580775171	29
bin	13.663809354633	18
bin	14.965037934095	23
bin	16.266266513557	13
bin	17.567495093018	19
bin	18.86872367248	13
bin	20.169952251942	0
bin	21.471180831404	0
bin	22.772409410865	0
bin	24.073637990327	0
bin	25.374866569789	0
bin	26.676095149251	0
bin	27.977323728712	0
bin	29.278552308174	0
scalar scenarioPRJP1.node[54].app 	sentPk:count 	5008
attr interpolationmode  none
attr source  sentPk
attr title  "packets sent, count"
scalar scenarioPRJP1.node[54].app 	sentPk:sum(packetBytes) 	2564096
attr interpolationmode  none
attr source  sentPk
attr title  "packets sent, sum(packetBytes)"
scalar scenarioPRJP1.node[54].udp 	droppedPkBadChecksum:count 	0
attr interpolationmode  none
attr title  "packets dropped (checksum error), count"
scalar scenarioPRJP1.node[54].udp 	droppedPkWrongPort:count 	6
attr interpolationmode  none
attr title  "packets dropped (wrong port), count"
scalar scenarioPRJP1.node[54].udp 	passedUpPk:count 	1132
attr interpolationmode  none
attr title  "packets passed up, count"
scalar scenarioPRJP1.node[54].udp 	rcvdPk:count 	1138
attr interpolationmode  none
attr source  rcvdPk
attr title  "packets received, count"
scalar scenarioPRJP1.node[54].udp 	rcvdPk:sum(packetBytes) 	591760
attr interpolationmode  none
attr source  rcvdPk
attr title  "packets received, sum(packetBytes)"
scalar scenarioPRJP1.node[54].udp 	sentPk:count 	5008
attr interpolationmode  none
attr source  sentPk
attr title  "packets sent, count"
scalar scenarioPRJP1.node[54].udp 	sentPk:sum(packetBytes) 	2604160
attr interpolationmode  none
attr source  sentPk
attr title  "packets sent, sum(packetBytes)"
scalar scenarioPRJP1.node[54].networkLayer.arp 	failedARPResolution:count 	20
attr title  "ARP failed resolutions, count"
scalar scenarioPRJP1.node[54].networkLayer.arp 	completedARPResolution:count 	1570
attr title  "ARP completed resolutions, count"
scalar scenarioPRJP1.node[54].networkLayer.arp 	initiatedARPResolution:count 	137
attr title  "ARP initiated resolutions, count"
scalar scenarioPRJP1.node[54].networkLayer.arp 	sentReply:count 	102
attr title  "ARP replies sent, count"
scalar scenarioPRJP1.node[54].networkLayer.arp 	sentReq:count 	233
attr title  "ARP request sent, count"
scalar scenarioPRJP1.node[54].mobility 	startTime 	4.9
scalar scenarioPRJP1.node[54].mobility 	totalTime 	1825.4
scalar scenarioPRJP1.node[54].mobility 	stopTime 	1830.4
scalar scenarioPRJP1.node[54].mobility 	minSpeed 	2.4755261562681e-13
scalar scenarioPRJP1.node[54].mobility 	maxSpeed 	18.602908957656
scalar scenarioPRJP1.node[54].mobility 	totalDistance 	16742.898840369
scalar scenarioPRJP1.node[54].mobility 	totalCO2Emission 	4909.3399078536
scalar scenarioPRJP1.node[54].wlan.mgmt 	dataQueueLen:max 	39
attr interpolationmode  sample-hold
attr title  "data queue length, max"
scalar scenarioPRJP1.node[54].wlan.mgmt 	dataQueueLen:timeavg 	0
attr interpolationmode  sample-hold
attr title  "data queue length, timeavg"
scalar scenarioPRJP1.node[54].wlan.mgmt 	dropPkByQueue:count 	0
attr interpolationmode  none
attr source  dropPkByQueue
attr title  "packets dropped by queue, count"
scalar scenarioPRJP1.node[54].wlan.mgmt 	dropPkByQueue:sum(packetBytes) 	0
attr interpolationmode  none
attr source  dropPkByQueue
attr title  "packets dropped by queue, sum(packetBytes)"
scalar scenarioPRJP1.node[54].wlan.mac 	"number of received packets" 	7041
scalar scenarioPRJP1.node[54].wlan.mac 	"number of collisions" 	130939
scalar scenarioPRJP1.node[54].wlan.mac 	"number of internal collisions" 	1
scalar scenarioPRJP1.node[54].wlan.mac 	"number of retry for AC 0" 	18844
scalar scenarioPRJP1.node[54].wlan.mac 	"number of retry for AC 1" 	31
scalar scenarioPRJP1.node[54].wlan.mac 	"number of retry for AC 2" 	0
scalar scenarioPRJP1.node[54].wlan.mac 	"number of retry for AC 3" 	0
scalar scenarioPRJP1.node[54].wlan.mac 	"sent and received bits" 	66480744
scalar scenarioPRJP1.node[54].wlan.mac 	"sent packet within AC 0" 	6835
scalar scenarioPRJP1.node[54].wlan.mac 	"sent packet within AC 1" 	25
scalar scenarioPRJP1.node[54].wlan.mac 	"sent packet within AC 2" 	0
scalar scenarioPRJP1.node[54].wlan.mac 	"sent packet within AC 3" 	0
scalar scenarioPRJP1.node[54].wlan.mac 	"sent in TXOP " 	0
scalar scenarioPRJP1.node[54].wlan.mac 	"sentWithoutRetry AC 0" 	4542
scalar scenarioPRJP1.node[54].wlan.mac 	"sentWithoutRetry AC 1" 	13
scalar scenarioPRJP1.node[54].wlan.mac 	"sentWithoutRetry AC 2" 	0
scalar scenarioPRJP1.node[54].wlan.mac 	"sentWithoutRetry AC 3" 	0
scalar scenarioPRJP1.node[54].wlan.mac 	"numGivenUp AC 0" 	2086
scalar scenarioPRJP1.node[54].wlan.mac 	"numGivenUp AC 1" 	0
scalar scenarioPRJP1.node[54].wlan.mac 	"numGivenUp AC 2" 	0
scalar scenarioPRJP1.node[54].wlan.mac 	"numGivenUp AC 3" 	0
scalar scenarioPRJP1.node[54].wlan.mac 	"numDropped AC 0" 	7
scalar scenarioPRJP1.node[54].wlan.mac 	"numDropped AC 1" 	0
scalar scenarioPRJP1.node[54].wlan.mac 	"numDropped AC 2" 	0
scalar scenarioPRJP1.node[54].wlan.mac 	"numDropped AC 3" 	0
scalar scenarioPRJP1.node[54].wlan.mac 	rcvdPkFromLL:count 	383792
attr interpolationmode  none
attr source  packetReceivedFromLower
attr title  "packets received from lower layer, count"
scalar scenarioPRJP1.node[54].wlan.mac 	rcvdPkFromLL:sum(packetBytes) 	128523469
attr interpolationmode  none
attr source  packetReceivedFromLower
attr title  "packets received from lower layer, sum(packetBytes)"
scalar scenarioPRJP1.node[54].wlan.mac 	sentDownPk:count 	62863
attr interpolationmode  none
attr source  packetSentToLower
attr title  "packets sent to lower layer, count"
scalar scenarioPRJP1.node[54].wlan.mac 	sentDownPk:sum(packetBytes) 	20304161
attr interpolationmode  none
attr source  packetSentToLower
attr title  "packets sent to lower layer, sum(packetBytes)"
scalar scenarioPRJP1.node[54].wlan.mac 	rcvdPkFromHL:count 	36955
attr interpolationmode  none
attr source  packetReceivedFromUpper
attr title  "packets received from higher layer, count"
scalar scenarioPRJP1.node[54].wlan.mac 	rcvdPkFromHL:sum(packetBytes) 	9502091
attr interpolationmode  none
attr source  packetReceivedFromUpper
attr title  "packets received from higher layer, sum(packetBytes)"
scalar scenarioPRJP1.node[54].wlan.mac 	passedUpPk:count 	116156
attr interpolationmode  none
attr source  packetSentToUpper
attr title  "packets passed to higher layer, count"
scalar scenarioPRJP1.node[54].wlan.mac 	passedUpPk:sum(packetBytes) 	21386853
attr interpolationmode  none
attr source  packetSentToUpper
attr title  "packets passed to higher layer, sum(packetBytes)"
statistic scenarioPRJP1.node[54].wlan.radio 	radioChannel:histogram
field count 1
field mean 3
field stddev -nan
field sum 3
field sqrsum 9
field min 3
field max 3
attr interpolationmode  sample-hold
attr source  radioChannelChanged
attr title  "Radio channel, histogram"
bin	-INF	0
bin	2	0
bin	3	1
bin	4	0
scalar scenarioPRJP1.node[54].wlan.radio 	transmissionState:count 	251452
attr interpolationmode  sample-hold
attr source  transmissionStateChanged
attr title  "Radio transmission state, count"
scalar scenarioPRJP1.node[54].wlan.radio 	receptionState:count 	1878440
attr interpolationmode  sample-hold
attr source  receptionStateChanged
attr title  "Radio reception state, count"
scalar scenarioPRJP1.node[54].wlan.radio 	radioMode:count 	125728
attr interpolationmode  sample-hold
attr source  radioModeChanged
attr title  "Radio mode, count"
statistic scenarioPRJP1.node[54].wlan.radio 	symbolErrorRate:histogram
field count 0
field mean -nan
field stddev -nan
field sum 0
field sqrsum 0
field min -nan
field max -nan
attr source  symbolErrorRate
attr title  "Symbol error rate, histogram"
bin	-INF	0
bin	-0.5	0
bin	-0.46666666666667	0
bin	-0.43333333333333	0
bin	-0.4	0
bin	-0.36666666666667	0
bin	-0.33333333333333	0
bin	-0.3	0
bin	-0.26666666666667	0
bin	-0.23333333333333	0
bin	-0.2	0
bin	-0.16666666666667	0
bin	-0.13333333333333	0
bin	-0.1	0
bin	-0.066666666666667	0
bin	-0.033333333333333	0
bin	0	0
bin	0.033333333333333	0
bin	0.066666666666667	0
bin	0.1	0
bin	0.13333333333333	0
bin	0.16666666666667	0
bin	0.2	0
bin	0.23333333333333	0
bin	0.26666666666667	0
bin	0.3	0
bin	0.33333333333333	0
bin	0.36666666666667	0
bin	0.4	0
bin	0.43333333333333	0
bin	0.46666666666667	0
bin	0.5	0
statistic scenarioPRJP1.node[54].wlan.radio 	bitErrorRate:histogram
field count 0
field mean -nan
field stddev -nan
field sum 0
field sqrsum 0
field min -nan
field max -nan
attr source  bitErrorRate
attr title  "Bit error rate, histogram"
bin	-INF	0
bin	-0.5	0
bin	-0.46666666666667	0
bin	-0.43333333333333	0
bin	-0.4	0
bin	-0.36666666666667	0
bin	-0.33333333333333	0
bin	-0.3	0
bin	-0.26666666666667	0
bin	-0.23333333333333	0
bin	-0.2	0
bin	-0.16666666666667	0
bin	-0.13333333333333	0
bin	-0.1	0
bin	-0.066666666666667	0
bin	-0.033333333333333	0
bin	0	0
bin	0.033333333333333	0
bin	0.066666666666667	0
bin	0.1	0
bin	0.13333333333333	0
bin	0.16666666666667	0
bin	0.2	0
bin	0.23333333333333	0
bin	0.26666666666667	0
bin	0.3	0
bin	0.33333333333333	0
bin	0.36666666666667	0
bin	0.4	0
bin	0.43333333333333	0
bin	0.46666666666667	0
bin	0.5	0
statistic scenarioPRJP1.node[54].wlan.radio 	packetErrorRate:histogram
field count 383792
field mean 0.31212099435861
field stddev 0.45220462845446
field sum 119789.54066688
field sqrsum 115869.8783226
field min 0
field max 1
attr source  packetErrorRate
attr title  "Packet error rate, histogram"
bin	-INF	0
bin	-0.5	0
bin	-0.46666666666667	0
bin	-0.43333333333333	0
bin	-0.4	0
bin	-0.36666666666667	0
bin	-0.33333333333333	0
bin	-0.3	0
bin	-0.26666666666667	0
bin	-0.23333333333333	0
bin	-0.2	0
bin	-0.16666666666667	0
bin	-0.13333333333333	0
bin	-0.1	0
bin	-0.066666666666667	0
bin	-0.033333333333333	0
bin	0	248183
bin	0.033333333333333	3867
bin	0.066666666666667	2331
bin	0.1	1777
bin	0.13333333333333	1383
bin	0.16666666666667	1140
bin	0.2	1037
bin	0.23333333333333	957
bin	0.26666666666667	800
bin	0.3	681
bin	0.33333333333333	686
bin	0.36666666666667	637
bin	0.4	579
bin	0.43333333333333	557
bin	0.46666666666667	527
bin	0.5	118650
statistic scenarioPRJP1.node[54].wlan.radio 	minSNIR:histogram
field count 383792
field mean 3518.724463508
field stddev 70424.411954741
field sum 1350458299.2987
field sqrsum 1.9082008895964e+15
field min 0.00015725361977884
field max 7723654.7101284
attr source  minSNIR
attr title  "Min SNIR, histogram"
bin	-INF	0
bin	-91052.265187077	0
bin	-78910.558032467	0
bin	-66768.850877857	0
bin	-54627.143723247	0
bin	-42485.436568636	0
bin	-30343.729414026	0
bin	-18202.022259416	0
bin	-6060.3151048062	373282
bin	6081.3920498039	5900
bin	18223.099204414	1189
bin	30364.806359024	477
bin	42506.513513634	336
bin	54648.220668244	265
bin	66789.927822854	268
bin	78931.634977465	392
bin	91073.342132075	138
bin	103215.04928668	55
bin	115356.75644129	82
bin	127498.46359591	87
bin	139640.17075052	65
bin	151781.87790513	38
bin	163923.58505974	61
bin	176065.29221435	106
bin	188206.99936896	27
bin	200348.70652357	11
bin	212490.41367818	34
bin	224632.12083279	10
bin	236773.8279874	23
bin	248915.53514201	21
bin	261057.24229662	6
bin	273198.94945123	919
scalar scenarioPRJP1.node[54].lo0.lo 	droppedPkBitError:count 	0
attr interpolationmode  none
attr source  dropPkBitError
attr title  "packets dropped/bit error, count"
scalar scenarioPRJP1.node[54].lo0.lo 	droppedPkBitError:sum(packetBytes) 	0
attr interpolationmode  none
attr source  dropPkBitError
attr title  "packets dropped/bit error, sum(packetBytes)"
scalar scenarioPRJP1.node[54].lo0.lo 	rcvdPkFromHL:count 	1
attr interpolationmode  none
attr source  packetReceivedFromUpper
attr title  "packets received from higher layer, count"
scalar scenarioPRJP1.node[54].lo0.lo 	rcvdPkFromHL:sum(packetBytes) 	56
attr interpolationmode  none
attr source  packetReceivedFromUpper
attr title  "packets received from higher layer, sum(packetBytes)"
scalar scenarioPRJP1.node[54].lo0.lo 	passedUpPk:count 	1
attr interpolationmode  none
attr source  packetSentToUpper
attr title  "packets passed to higher layer, count"
scalar scenarioPRJP1.node[54].lo0.lo 	passedUpPk:sum(packetBytes) 	56
attr interpolationmode  none
attr source  packetSentToUpper
attr title  "packets passed to higher layer, sum(packetBytes)"
scalar scenarioPRJP1.node[72].app 	"Total sent" 	5002
scalar scenarioPRJP1.node[72].app 	"Total received" 	1081
scalar scenarioPRJP1.node[72].app 	"Total deleted" 	151
scalar scenarioPRJP1.node[72].app 	dropPk:count 	151
attr interpolationmode  none
attr source  dropPk
attr title  "packets dropped, count"
scalar scenarioPRJP1.node[72].app 	dropPk:sum(packetBytes) 	77312
attr interpolationmode  none
attr source  dropPk
attr title  "packets dropped, sum(packetBytes)"
scalar scenarioPRJP1.node[72].app 	outOfOrderPk:count 	1
attr interpolationmode  none
attr source  outOfOrderPk
attr title  "packets received out of order, count"
scalar scenarioPRJP1.node[72].app 	outOfOrderPk:sum(packetBytes) 	512
attr interpolationmode  none
attr source  outOfOrderPk
attr title  "packets received out of order, sum(packetBytes)"
scalar scenarioPRJP1.node[72].app 	rcvdPk:count 	1081
attr interpolationmode  none
attr source  rcvdPk
attr title  "packets received, count"
scalar scenarioPRJP1.node[72].app 	rcvdPk:sum(packetBytes) 	553472
attr interpolationmode  none
attr source  rcvdPk
attr title  "packets received, sum(packetBytes)"
statistic scenarioPRJP1.node[72].app 	endToEndDelay:histogram
field count 1081
field mean 4.2848869214705
field stddev 5.5275790339835
field sum 4631.9627621096
field sqrsum 52845.897035191
field min 0.000891011007
field max 19.979963466546
attr interpolationmode  none
attr source  messageAge(rcvdPk)
attr title  "delay, histogram"
attr unit  s
bin	-INF	0
bin	-9.916495207219	0
bin	-8.594177038073	0
bin	-7.271858868927	0
bin	-5.949540699781	0
bin	-4.627222530635	0
bin	-3.304904361489	0
bin	-1.982586192343	0
bin	-0.660268023197	492
bin	0.662050145949	90
bin	1.984368315095	70
bin	3.306686484241	50
bin	4.629004653387	54
bin	5.951322822533	37
bin	7.273640991679	56
bin	8.595959160825	41
bin	9.918277329971	33
bin	11.240595499117	35
bin	12.562913668263	20
bin	13.885231837409	29
bin	15.207550006555	21
bin	16.529868175701	18
bin	17.852186344847	21
bin	19.174504513993	14
bin	20.496822683139	0
bin	21.819140852285	0
bin	23.141459021431	0
bin	24.463777190577	0
bin	25.786095359723	0
bin	27.108413528869	0
bin	28.430731698015	0
bin	29.753049867161	0
scalar scenarioPRJP1.node[72].app 	sentPk:count 	5002
attr interpolationmode  none
attr source  sentPk
attr title  "packets sent, count"
scalar scenarioPRJP1.node[72].app 	sentPk:sum(packetBytes) 	2561024
attr interpolationmode  none
attr source  sentPk
attr title  "packets sent, sum(packetBytes)"
scalar scenarioPRJP1.node[72].udp 	droppedPkBadChecksum:count 	0
attr interpolationmode  none
attr title  "packets dropped (checksum error), count"
scalar scenarioPRJP1.node[72].udp 	droppedPkWrongPort:count 	0
attr interpolationmode  none
attr title  "packets dropped (wrong port), count"
scalar scenarioPRJP1.node[72].udp 	passedUpPk:count 	1233
attr interpolationmode  none
attr title  "packets passed up, count"
scalar scenarioPRJP1.node[72].udp 	rcvdPk:count 	1233
attr interpolationmode  none
attr source  rcvdPk
attr title  "packets received, count"
scalar scenarioPRJP1.node[72].udp 	rcvdPk:sum(packetBytes) 	641160
attr interpolationmode  none
attr source  rcvdPk
attr title  "packets received, sum(packetBytes)"
scalar scenarioPRJP1.node[72].udp 	sentPk:count 	5002
attr interpolationmode  none
attr source  sentPk
attr title  "packets sent, count"
scalar scenarioPRJP1.node[72].udp 	sentPk:sum(packetBytes) 	2601040
attr interpolationmode  none
attr source  sentPk
attr title  "packets sent, sum(packetBytes)"
scalar scenarioPRJP1.node[72].networkLayer.arp 	failedARPResolution:count 	10
attr title  "ARP failed resolutions, count"
scalar scenarioPRJP1.node[72].networkLayer.arp 	completedARPResolution:count 	1514
attr title  "ARP completed resolutions, count"
scalar scenarioPRJP1.node[72].networkLayer.arp 	initiatedARPResolution:count 	154
attr title  "ARP initiated resolutions, count"
scalar scenarioPRJP1.node[72].networkLayer.arp 	sentReply:count 	116
attr title  "ARP replies sent, count"
scalar scenarioPRJP1.node[72].networkLayer.arp 	sentReq:count 	258
attr title  "ARP request sent, count"
scalar scenarioPRJP1.node[72].mobility 	startTime 	7.3
scalar scenarioPRJP1.node[72].mobility 	totalTime 	1870.7
scalar scenarioPRJP1.node[72].mobility 	stopTime 	1878.1
scalar scenarioPRJP1.node[72].mobility 	minSpeed 	2.4756222362741e-13
scalar scenarioPRJP1.node[72].mobility 	maxSpeed 	19.99099524819
scalar scenarioPRJP1.node[72].mobility 	totalDistance 	19749.068173677
scalar scenarioPRJP1.node[72].mobility 	totalCO2Emission 	5577.6428959814
scalar scenarioPRJP1.node[72].wlan.mgmt 	dataQueueLen:max 	30
attr interpolationmode  sample-hold
attr title  "data queue length, max"
scalar scenarioPRJP1.node[72].wlan.mgmt 	dataQueueLen:timeavg 	0.0010807028514112
attr interpolationmode  sample-hold
attr title  "data queue length, timeavg"
scalar scenarioPRJP1.node[72].wlan.mgmt 	dropPkByQueue:count 	0
attr interpolationmode  none
attr source  dropPkByQueue
attr title  "packets dropped by queue, count"
scalar scenarioPRJP1.node[72].wlan.mgmt 	dropPkByQueue:sum(packetBytes) 	0
attr interpolationmode  none
attr source  dropPkByQueue
attr title  "packets dropped by queue, sum(packetBytes)"
scalar scenarioPRJP1.node[72].wlan.mac 	"number of received packets" 	7287
scalar scenarioPRJP1.node[72].wlan.mac 	"number of collisions" 	122730
scalar scenarioPRJP1.node[72].wlan.mac 	"number of internal collisions" 	0
scalar scenarioPRJP1.node[72].wlan.mac 	"number of retry for AC 0" 	19673
scalar scenarioPRJP1.node[72].wlan.mac 	"number of retry for AC 1" 	15
scalar scenarioPRJP1.node[72].wlan.mac 	"number of retry for AC 2" 	0
scalar scenarioPRJP1.node[72].wlan.mac 	"number of retry for AC 3" 	0
scalar scenarioPRJP1.node[72].wlan.mac 	"sent and received bits" 	69341544
scalar scenarioPRJP1.node[72].wlan.mac 	"sent packet within AC 0" 	7029
scalar scenarioPRJP1.node[72].wlan.mac 	"sent packet within AC 1" 	8
scalar scenarioPRJP1.node[72].wlan.mac 	"sent packet within AC 2" 	0
scalar scenarioPRJP1.node[72].wlan.mac 	"sent packet within AC 3" 	0
scalar scenarioPRJP1.node[72].wlan.mac 	"sent in TXOP " 	0
scalar scenarioPRJP1.node[72].wlan.mac 	"sentWithoutRetry AC 0" 	4701
scalar scenarioPRJP1.node[72].wlan.mac 	"sentWithoutRetry AC 1" 	4
scalar scenarioPRJP1.node[72].wlan.mac 	"sentWithoutRetry AC 2" 	0
scalar scenarioPRJP1.node[72].wlan.mac 	"sentWithoutRetry AC 3" 	0
scalar scenarioPRJP1.node[72].wlan.mac 	"numGivenUp AC 0" 	2220
scalar scenarioPRJP1.node[72].wlan.mac 	"numGivenUp AC 1" 	0
scalar scenarioPRJP1.node[72].wlan.mac 	"numGivenUp AC 2" 	0
scalar scenarioPRJP1.node[72].wlan.mac 	"numGivenUp AC 3" 	0
scalar scenarioPRJP1.node[72].wlan.mac 	"numDropped AC 0" 	12
scalar scenarioPRJP1.node[72].wlan.mac 	"numDropped AC 1" 	0
scalar scenarioPRJP1.node[72].wlan.mac 	"numDropped AC 2" 	0
scalar scenarioPRJP1.node[72].wlan.mac 	"numDropped AC 3" 	0
scalar scenarioPRJP1.node[72].wlan.mac 	rcvdPkFromLL:count 	375058
attr interpolationmode  none
attr source  packetReceivedFromLower
attr title  "packets received from lower layer, count"
scalar scenarioPRJP1.node[72].wlan.mac 	rcvdPkFromLL:sum(packetBytes) 	123001563
attr interpolationmode  none
attr source  packetReceivedFromLower
attr title  "packets received from lower layer, sum(packetBytes)"
scalar scenarioPRJP1.node[72].wlan.mac 	sentDownPk:count 	65425
attr interpolationmode  none
attr source  packetSentToLower
attr title  "packets sent to lower layer, count"
scalar scenarioPRJP1.node[72].wlan.mac 	sentDownPk:sum(packetBytes) 	21184358
attr interpolationmode  none
attr source  packetSentToLower
attr title  "packets sent to lower layer, sum(packetBytes)"
scalar scenarioPRJP1.node[72].wlan.mac 	rcvdPkFromHL:count 	38462
attr interpolationmode  none
attr source  packetReceivedFromUpper
attr title  "packets received from higher layer, count"
scalar scenarioPRJP1.node[72].wlan.mac 	rcvdPkFromHL:sum(packetBytes) 	9937841
attr interpolationmode  none
attr source  packetReceivedFromUpper
attr title  "packets received from higher layer, sum(packetBytes)"
scalar scenarioPRJP1.node[72].wlan.mac 	passedUpPk:count 	123396
attr interpolationmode  none
attr source  packetSentToUpper
attr title  "packets passed to higher layer, count"
scalar scenarioPRJP1.node[72].wlan.mac 	passedUpPk:sum(packetBytes) 	22600641
attr interpolationmode  none
attr source  packetSentToUpper
attr title  "packets passed to higher layer, sum(packetBytes)"
statistic scenarioPRJP1.node[72].wlan.radio 	radioChannel:histogram
field count 1
field mean 3
field stddev -nan
field sum 3
field sqrsum 9
field min 3
field max 3
attr interpolationmode  sample-hold
attr source  radioChannelChanged
attr title  "Radio channel, histogram"
bin	-INF	0
bin	2	0
bin	3	1
bin	4	0
scalar scenarioPRJP1.node[72].wlan.radio 	transmissionState:count 	261700
attr interpolationmode  sample-hold
attr source  transmissionStateChanged
attr title  "Radio transmission state, count"
scalar scenarioPRJP1.node[72].wlan.radio 	receptionState:count 	1804131
attr interpolationmode  sample-hold
attr source  receptionStateChanged
attr title  "Radio reception state, count"
scalar scenarioPRJP1.node[72].wlan.radio 	radioMode:count 	130852
attr interpolationmode  sample-hold
attr source  radioModeChanged
attr title  "Radio mode, count"
statistic scenarioPRJP1.node[72].wlan.radio 	symbolErrorRate:histogram
field count 0
field mean -nan
field stddev -nan
field sum 0
field sqrsum 0
field min -nan
field max -nan
attr source  symbolErrorRate
attr title  "Symbol error rate, histogram"
bin	-INF	0
bin	-0.5	0
bin	-0.46666666666667	0
bin	-0.43333333333333	0
bin	-0.4	0
bin	-0.36666666666667	0
bin	-0.33333333333333	0
bin	-0.3	0
bin	-0.26666666666667	0
bin	-0.23333333333333	0
bin	-0.2	0
bin	-0.16666666666667	0
bin	-0.13333333333333	0
bin	-0.1	0
bin	-0.066666666666667	0
bin	-0.033333333333333	0
bin	0	0
bin	0.033333333333333	0
bin	0.066666666666667	0
bin	0.1	0
bin	0.13333333333333	0
bin	0.16666666666667	0
bin	0.2	0
bin	0.23333333333333	0
bin	0.26666666666667	0
bin	0.3	0
bin	0.33333333333333	0
bin	0.36666666666667	0
bin	0.4	0
bin	0.43333333333333	0
bin	0.46666666666667	0
bin	0.5	0
statistic scenarioPRJP1.node[72].wlan.radio 	bitErrorRate:histogram
field count 0
field mean -nan
field stddev -nan
field sum 0
field sqrsum 0
field min -nan
field max -nan
attr source  bitErrorRate
attr title  "Bit error rate, histogram"
bin	-INF	0
bin	-0.5	0
bin	-0.46666666666667	0
bin	-0.43333333333333	0
bin	-0.4	0
bin	-0.36666666666667	0
bin	-0.33333333333333	0
bin	-0.3	0
bin	-0.26666666666667	0
bin	-0.23333333333333	0
bin	-0.2	0
bin	-0.16666666666667	0
bin	-0.13333333333333	0
bin	-0.1	0
bin	-0.066666666666667	0
bin	-0.033333333333333	0
bin	0	0
bin	0.033333333333333	0
bin	0.066666666666667	0
bin	0.1	0
bin	0.13333333333333	0
bin	0.16666666666667	0
bin	0.2	0
bin	0.23333333333333	0
bin	0.26666666666667	0
bin	0.3	0
bin	0.33333333333333	0
bin	0.36666666666667	0
bin	0.4	0
bin	0.43333333333333	0
bin	0.46666666666667	0
bin	0.5	0
statistic scenarioPRJP1.node[72].wlan.radio 	packetErrorRate:histogram
field count 375058
field mean 0.29641113384237
field stddev 0.44502318344729
field sum 111171.36703665
field sqrsum 107230.83223235
field min 0
field max 1
attr source  packetErrorRate
attr title  "Packet error rate, histogram"
bin	-INF	0
bin	-0.5	0
bin	-0.43333333333333	0
bin	-0.36666666666667	0
bin	-0.3	0
bin	-0.23333333333333	0
bin	-0.16666666666667	0
bin	-0.1	0
bin	-0.033333333333333	247863
bin	0.033333333333333	6305
bin	0.1	3198
bin	0.16666666666667	2235
bin	0.23333333333333	1760
bin	0.3	1397
bin	0.36666666666667	1263
bin	0.43333333333333	1151
bin	0.5	1041
bin	0.56666666666667	1043
bin	0.63333333333333	999
bin	0.7	1123
bin	0.76666666666667	1129
bin	0.83333333333333	1380
bin	0.9	2082
bin	0.96666666666667	101089
bin	1.0333333333333	0
bin	1.1	0
bin	1.1666666666667	0
bin	1.2333333333333	0
bin	1.3	0
bin	1.3666666666667	0
bin	1.4333333333333	0
bin	1.5	0
statistic scenarioPRJP1.node[72].wlan.radio 	minSNIR:histogram
field count 375058
field mean 3796.9145770074
field stddev 76466.982594323
field sum 1424063187.4232
field sqrsum 2.1984401217974e+15
field min 0.0001259593326026
field max 3012958.8769377
attr source  minSNIR
attr title  "Min SNIR, histogram"
bin	-INF	0
bin	-65852.46334645	0
bin	-57072.067664439	0
bin	-48291.671982428	0
bin	-39511.276300417	0
bin	-30730.880618406	0
bin	-21950.484936395	0
bin	-13170.089254384	0
bin	-4389.693572373	361880
bin	4390.702109638	7390
bin	13171.097791649	1950
bin	21951.49347366	690
bin	30731.889155671	438
bin	39512.284837682	279
bin	48292.680519693	215
bin	57073.076201704	142
bin	65853.471883715	79
bin	74633.867565726	151
bin	83414.263247737	111
bin	92194.658929748	177
bin	100975.05461176	57
bin	109755.45029377	71
bin	118535.84597578	49
bin	127316.24165779	69
bin	136096.6373398	37
bin	144877.03302181	37
bin	153657.42870382	26
bin	162437.82438584	40
bin	171218.22006785	125
bin	179998.61574986	18
bin	188779.01143187	53
bin	197559.40711388	974
scalar scenarioPRJP1.node[72].lo0.lo 	droppedPkBitError:count 	0
attr interpolationmode  none
attr source  dropPkBitError
attr title  "packets dropped/bit error, count"
scalar scenarioPRJP1.node[72].lo0.lo 	droppedPkBitError:sum(packetBytes) 	0
attr interpolationmode  none
attr source  dropPkBitError
attr title  "packets dropped/bit error, sum(packetBytes)"
scalar scenarioPRJP1.node[72].lo0.lo 	rcvdPkFromHL:count 	0
attr interpolationmode  none
attr source  packetReceivedFromUpper
attr title  "packets received from higher layer, count"
scalar scenarioPRJP1.node[72].lo0.lo 	rcvdPkFromHL:sum(packetBytes) 	0
attr interpolationmode  none
attr source  packetReceivedFromUpper
attr title  "packets received from higher layer, sum(packetBytes)"
scalar scenarioPRJP1.node[72].lo0.lo 	passedUpPk:count 	0
attr interpolationmode  none
attr source  packetSentToUpper
attr title  "packets passed to higher layer, count"
scalar scenarioPRJP1.node[72].lo0.lo 	passedUpPk:sum(packetBytes) 	0
attr interpolationmode  none
attr source  packetSentToUpper
attr title  "packets passed to higher layer, sum(packetBytes)"
scalar scenarioPRJP1.node[5].app 	"Total sent" 	5011
scalar scenarioPRJP1.node[5].app 	"Total received" 	1149
scalar scenarioPRJP1.node[5].app 	"Total deleted" 	163
scalar scenarioPRJP1.node[5].app 	dropPk:count 	163
attr interpolationmode  none
attr source  dropPk
attr title  "packets dropped, count"
scalar scenarioPRJP1.node[5].app 	dropPk:sum(packetBytes) 	83456
attr interpolationmode  none
attr source  dropPk
attr title  "packets dropped, sum(packetBytes)"
scalar scenarioPRJP1.node[5].app 	outOfOrderPk:count 	2
attr interpolationmode  none
attr source  outOfOrderPk
attr title  "packets received out of order, count"
scalar scenarioPRJP1.node[5].app 	outOfOrderPk:sum(packetBytes) 	1024
attr interpolationmode  none
attr source  outOfOrderPk
attr title  "packets received out of order, sum(packetBytes)"
scalar scenarioPRJP1.node[5].app 	rcvdPk:count 	1149
attr interpolationmode  none
attr source  rcvdPk
attr title  "packets received, count"
scalar scenarioPRJP1.node[5].app 	rcvdPk:sum(packetBytes) 	588288
attr interpolationmode  none
attr source  rcvdPk
attr title  "packets received, sum(packetBytes)"
statistic scenarioPRJP1.node[5].app 	endToEndDelay:histogram
field count 1149
field mean 4.6675143329716
field stddev 5.6995161863894
field sum 5362.9739685843
field sqrsum 62323.946368955
field min 0.000891011007
field max 19.853333679284
attr interpolationmode  none
attr source  messageAge(rcvdPk)
attr title  "delay, histogram"
attr unit  s
bin	-INF	0
bin	-8.317475473422	0
bin	-7.2083518663173	0
bin	-6.0992282592127	0
bin	-4.990104652108	0
bin	-3.8809810450033	0
bin	-2.7718574378987	0
bin	-1.662733830794	0
bin	-0.55361022368933	479
bin	0.55551338341533	93
bin	1.66463699052	57
bin	2.7737605976247	46
bin	3.8828842047293	53
bin	4.992007811834	43
bin	6.1011314189387	46
bin	7.2102550260433	53
bin	8.319378633148	34
bin	9.4285022402527	27
bin	10.537625847357	34
bin	11.646749454462	18
bin	12.755873061567	33
bin	13.864996668671	29
bin	14.974120275776	35
bin	16.083243882881	32
bin	17.192367489985	15
bin	18.30149109709	17
bin	19.410614704195	5
bin	20.519738311299	0
bin	21.628861918404	0
bin	22.737985525509	0
bin	23.847109132613	0
bin	24.956232739718	0
scalar scenarioPRJP1.node[5].app 	sentPk:count 	5011
attr interpolationmode  none
attr source  sentPk
attr title  "packets sent, count"
scalar scenarioPRJP1.node[5].app 	sentPk:sum(packetBytes) 	2565632
attr interpolationmode  none
attr source  sentPk
attr title  "packets sent, sum(packetBytes)"
scalar scenarioPRJP1.node[5].udp 	droppedPkBadChecksum:count 	0
attr interpolationmode  none
attr title  "packets dropped (checksum error), count"
scalar scenarioPRJP1.node[5].udp 	droppedPkWrongPort:count 	9
attr interpolationmode  none
attr title  "packets dropped (wrong port), count"
scalar scenarioPRJP1.node[5].udp 	passedUpPk:count 	1314
attr interpolationmode  none
attr title  "packets passed up, count"
scalar scenarioPRJP1.node[5].udp 	rcvdPk:count 	1323
attr interpolationmode  none
attr source  rcvdPk
attr title  "packets received, count"
scalar scenarioPRJP1.node[5].udp 	rcvdPk:sum(packetBytes) 	687960
attr interpolationmode  none
attr source  rcvdPk
attr title  "packets received, sum(packetBytes)"
scalar scenarioPRJP1.node[5].udp 	sentPk:count 	5011
attr interpolationmode  none
attr source  sentPk
attr title  "packets sent, count"
scalar scenarioPRJP1.node[5].udp 	sentPk:sum(packetBytes) 	2605720
attr interpolationmode  none
attr source  sentPk
attr title  "packets sent, sum(packetBytes)"
scalar scenarioPRJP1.node[5].networkLayer.arp 	failedARPResolution:count 	23
attr title  "ARP failed resolutions, count"
scalar scenarioPRJP1.node[5].networkLayer.arp 	completedARPResolution:count 	1474
attr title  "ARP completed resolutions, count"
scalar scenarioPRJP1.node[5].networkLayer.arp 	initiatedARPResolution:count 	173
attr title  "ARP initiated resolutions, count"
scalar scenarioPRJP1.node[5].networkLayer.arp 	sentReply:count 	108
attr title  "ARP replies sent, count"
scalar scenarioPRJP1.node[5].networkLayer.arp 	sentReq:count 	302
attr title  "ARP request sent, count"
scalar scenarioPRJP1.node[5].mobility 	startTime 	0.1
scalar scenarioPRJP1.node[5].mobility 	totalTime 	1878.6
scalar scenarioPRJP1.node[5].mobility 	stopTime 	1878.8
scalar scenarioPRJP1.node[5].mobility 	minSpeed 	2.4758228401903e-13
scalar scenarioPRJP1.node[5].mobility 	maxSpeed 	19.332711025483
scalar scenarioPRJP1.node[5].mobility 	totalDistance 	21918.182382366
scalar scenarioPRJP1.node[5].mobility 	totalCO2Emission 	5666.0796488257
scalar scenarioPRJP1.node[5].wlan.mgmt 	dataQueueLen:max 	88
attr interpolationmode  sample-hold
attr title  "data queue length, max"
scalar scenarioPRJP1.node[5].wlan.mgmt 	dataQueueLen:timeavg 	0.0010751976494539
attr interpolationmode  sample-hold
attr title  "data queue length, timeavg"
scalar scenarioPRJP1.node[5].wlan.mgmt 	dropPkByQueue:count 	0
attr interpolationmode  none
attr source  dropPkByQueue
attr title  "packets dropped by queue, count"
scalar scenarioPRJP1.node[5].wlan.mgmt 	dropPkByQueue:sum(packetBytes) 	0
attr interpolationmode  none
attr source  dropPkByQueue
attr title  "packets dropped by queue, sum(packetBytes)"
scalar scenarioPRJP1.node[5].wlan.mac 	"number of received packets" 	7371
scalar scenarioPRJP1.node[5].wlan.mac 	"number of collisions" 	120253
scalar scenarioPRJP1.node[5].wlan.mac 	"number of internal collisions" 	0
scalar scenarioPRJP1.node[5].wlan.mac 	"number of retry for AC 0" 	17971
scalar scenarioPRJP1.node[5].wlan.mac 	"number of retry for AC 1" 	11
scalar scenarioPRJP1.node[5].wlan.mac 	"number of retry for AC 2" 	0
scalar scenarioPRJP1.node[5].wlan.mac 	"number of retry for AC 3" 	0
scalar scenarioPRJP1.node[5].wlan.mac 	"sent and received bits" 	67941160
scalar scenarioPRJP1.node[5].wlan.mac 	"sent packet within AC 0" 	6977
scalar scenarioPRJP1.node[5].wlan.mac 	"sent packet within AC 1" 	15
scalar scenarioPRJP1.node[5].wlan.mac 	"sent packet within AC 2" 	0
scalar scenarioPRJP1.node[5].wlan.mac 	"sent packet within AC 3" 	0
scalar scenarioPRJP1.node[5].wlan.mac 	"sent in TXOP " 	0
scalar scenarioPRJP1.node[5].wlan.mac 	"sentWithoutRetry AC 0" 	4720
scalar scenarioPRJP1.node[5].wlan.mac 	"sentWithoutRetry AC 1" 	11
scalar scenarioPRJP1.node[5].wlan.mac 	"sentWithoutRetry AC 2" 	0
scalar scenarioPRJP1.node[5].wlan.mac 	"sentWithoutRetry AC 3" 	0
scalar scenarioPRJP1.node[5].wlan.mac 	"numGivenUp AC 0" 	1939
scalar scenarioPRJP1.node[5].wlan.mac 	"numGivenUp AC 1" 	0
scalar scenarioPRJP1.node[5].wlan.mac 	"numGivenUp AC 2" 	0
scalar scenarioPRJP1.node[5].wlan.mac 	"numGivenUp AC 3" 	0
scalar scenarioPRJP1.node[5].wlan.mac 	"numDropped AC 0" 	32
scalar scenarioPRJP1.node[5].wlan.mac 	"numDropped AC 1" 	0
scalar scenarioPRJP1.node[5].wlan.mac 	"numDropped AC 2" 	0
scalar scenarioPRJP1.node[5].wlan.mac 	"numDropped AC 3" 	0
scalar scenarioPRJP1.node[5].wlan.mac 	rcvdPkFromLL:count 	352072
attr interpolationmode  none
attr source  packetReceivedFromLower
attr title  "packets received from lower layer, count"
scalar scenarioPRJP1.node[5].wlan.mac 	rcvdPkFromLL:sum(packetBytes) 	115223050
attr interpolationmode  none
attr source  packetReceivedFromLower
attr title  "packets received from lower layer, sum(packetBytes)"
scalar scenarioPRJP1.node[5].wlan.mac 	sentDownPk:count 	62470
attr interpolationmode  none
attr source  packetSentToLower
attr title  "packets sent to lower layer, count"
scalar scenarioPRJP1.node[5].wlan.mac 	sentDownPk:sum(packetBytes) 	19856801
attr interpolationmode  none
attr source  packetSentToLower
attr title  "packets sent to lower layer, sum(packetBytes)"
scalar scenarioPRJP1.node[5].wlan.mac 	rcvdPkFromHL:count 	37149
attr interpolationmode  none
attr source  packetReceivedFromUpper
attr title  "packets received from higher layer, count"
scalar scenarioPRJP1.node[5].wlan.mac 	rcvdPkFromHL:sum(packetBytes) 	9610225
attr interpolationmode  none
attr source  packetReceivedFromUpper
attr title  "packets received from higher layer, sum(packetBytes)"
scalar scenarioPRJP1.node[5].wlan.mac 	passedUpPk:count 	114168
attr interpolationmode  none
attr source  packetSentToUpper
attr title  "packets passed to higher layer, count"
scalar scenarioPRJP1.node[5].wlan.mac 	passedUpPk:sum(packetBytes) 	21422662
attr interpolationmode  none
attr source  packetSentToUpper
attr title  "packets passed to higher layer, sum(packetBytes)"
statistic scenarioPRJP1.node[5].wlan.radio 	radioChannel:histogram
field count 1
field mean 3
field stddev -nan
field sum 3
field sqrsum 9
field min 3
field max 3
attr interpolationmode  sample-hold
attr source  radioChannelChanged
attr title  "Radio channel, histogram"
bin	-INF	0
bin	2	0
bin	3	1
bin	4	0
[...]
attr source  packetSentToUpper
attr title  "packets passed to higher layer, sum(packetBytes)"
statistic scenarioPRJP1.node[57].wlan.radio 	radioChannel:histogram
field count 1
field mean 3
field stddev -nan
field sum 3
field sqrsum 9
field min 3
field max 3
attr interpolationmode  sample-hold
attr source  radioChannelChanged
attr title  "Radio channel, histogram"
bin	-INF	0
bin	2	0
bin	3	1
bin	4	0
scalar scenarioPRJP1.node[57].wlan.radio 	transmissionState:count 	246680
attr interpolationmode  sample-hold
attr source  transmissionStateChanged
attr title  "Radio transmission state, count"
scalar scenarioPRJP1.node[57].wlan.radio 	receptionState:count 	1669162
attr interpolationmode  sample-hold
attr source  receptionStateChanged
attr title  "Radio reception state, count"
scalar scenarioPRJP1.node[57].wlan.radio 	radioMode:count 	123342
attr interpolationmode  sample-hold
attr source  radioModeChanged
attr title  "Radio mode, count"
statistic scenarioPRJP1.node[57].wlan.radio 	symbolErrorRate:histogram
field count 0
field mean -nan
field stddev -nan
field sum 0
field sqrsum 0
field min -nan
field max -nan
attr source  symbolErrorRate
attr title  "Symbol error rate, histogram"
bin	-INF	0
bin	-0.5	0
bin	-0.46666666666667	0
bin	-0.43333333333333	0
bin	-0.4	0
bin	-0.36666666666667	0
bin	-0.33333333333333	0
bin	-0.3	0
bin	-0.26666666666667	0
bin	-0.23333333333333	0
bin	-0.2	0
bin	-0.16666666666667	0
bin	-0.13333333333333	0
bin	-0.1	0
bin	-0.066666666666667	0
bin	-0.033333333333333	0
bin	0	0
bin	0.033333333333333	0
bin	0.066666666666667	0
bin	0.1	0
bin	0.13333333333333	0
bin	0.16666666666667	0
bin	0.2	0
bin	0.23333333333333	0
bin	0.26666666666667	0
bin	0.3	0
bin	0.33333333333333	0
bin	0.36666666666667	0
bin	0.4	0
bin	0.43333333333333	0
bin	0.46666666666667	0
bin	0.5	0
statistic scenarioPRJP1.node[57].wlan.radio 	bitErrorRate:histogram
field count 0
field mean -nan
field stddev -nan
field sum 0
field sqrsum 0
field min -nan
field max -nan
attr source  bitErrorRate
attr title  "Bit error rate, histogram"
bin	-INF	0
bin	-0.5	0
bin	-0.46666666666667	0
bin	-0.43333333333333	0
bin	-0.4	0
bin	-0.36666666666667	0
bin	-0.33333333333333	0
bin	-0.3	0
bin	-0.26666666666667	0
bin	-0.23333333333333	0
bin	-0.2	0
bin	-0.16666666666667	0
bin	-0.13333333333333	0
bin	-0.1	0
bin	-0.066666666666667	0
bin	-0.033333333333333	0
bin	0	0
bin	0.033333333333333	0
bin	0.066666666666667	0
bin	0.1	0
bin	0.13333333333333	0
bin	0.16666666666667	0
bin	0.2	0
bin	0.23333333333333	0
bin	0.26666666666667	0
bin	0.3	0
bin	0.33333333333333	0
bin	0.36666666666667	0
bin	0.4	0
bin	0.43333333333333	0
bin	0.46666666666667	0
bin	0.5	0
statistic scenarioPRJP1.node[57].wlan.radio 	packetErrorRate:histogram
field count 382300
field mean 0.28535844291649
field stddev 0.4407189281522
field sum 109092.53272698
field sqrsum 105385.62331898
field min 0
field max 1
attr source  packetErrorRate
attr title  "Packet error rate, histogram"
bin	-INF	0
bin	-1.0563820535991e-05	0
bin	-9.1553111311926e-06	0
bin	-7.7468017263937e-06	0
bin	-6.3382923215949e-06	0
bin	-4.929782916796e-06	0
bin	-3.5212735119972e-06	0
bin	-2.1127641071983e-06	0
bin	-7.0425470239943e-07	214690
bin	7.0425470239943e-07	3362
bin	2.1127641071983e-06	1640
bin	3.5212735119972e-06	1059
bin	4.929782916796e-06	868
bin	6.3382923215949e-06	697
bin	7.7468017263937e-06	555
bin	9.1553111311926e-06	529
bin	1.0563820535991e-05	467
bin	1.197232994079e-05	363
bin	1.3380839345589e-05	336
bin	1.4789348750388e-05	332
bin	1.6197858155187e-05	309
bin	1.7606367559986e-05	308
bin	1.9014876964785e-05	258
bin	2.0423386369584e-05	230
bin	2.1831895774382e-05	247
bin	2.3240405179181e-05	183
bin	2.464891458398e-05	169
bin	2.6057423988779e-05	180
bin	2.7465933393578e-05	166
bin	2.8874442798377e-05	173
bin	3.0282952203176e-05	182
bin	3.1691461607974e-05	154997
statistic scenarioPRJP1.node[57].wlan.radio 	minSNIR:histogram
field count 382300
field mean 4941.4284494849
field stddev 83875.72917183
field sum 1889108096.2381
field sqrsum 2.6988610933847e+15
field min 0.00015651549439936
field max 3159461.8509828
attr source  minSNIR
attr title  "Min SNIR, histogram"
bin	-INF	0
bin	-337600.36538145	0
bin	-292586.51558982	0
bin	-247572.6657982	0
bin	-202558.81600658	0
bin	-157544.96621495	0
bin	-112531.11642333	0
bin	-67517.266631703	0
bin	-22503.416840079	376722
bin	22510.432951545	2892
bin	67524.282743169	834
bin	112538.13253479	269
bin	157551.98232642	212
bin	202565.83211804	113
bin	247579.68190967	40
bin	292593.53170129	41
bin	337607.38149291	31
bin	382621.23128454	46
bin	427635.08107616	36
bin	472648.93086779	35
bin	517662.78065941	35
bin	562676.63045104	185
bin	607690.48024266	20
bin	652704.33003428	58
bin	697718.17982591	385
bin	742732.02961753	6
bin	787745.87940916	1
bin	832759.72920078	6
bin	877773.57899241	7
bin	922787.42878403	2
bin	967801.27857565	2
bin	1012815.1283673	322
scalar scenarioPRJP1.node[57].lo0.lo 	droppedPkBitError:count 	0
attr interpolationmode  none
attr source  dropPkBitError
attr title  "packets dropped/bit error, count"
scalar scenarioPRJP1.node[57].lo0.lo 	droppedPkBitError:sum(packetBytes) 	0
attr interpolationmode  none
attr source  dropPkBitError
attr title  "packets dropped/bit error, sum(packetBytes)"
scalar scenarioPRJP1.node[57].lo0.lo 	rcvdPkFromHL:count 	1
attr interpolationmode  none
attr source  packetReceivedFromUpper
attr title  "packets received from higher layer, count"
scalar scenarioPRJP1.node[57].lo0.lo 	rcvdPkFromHL:sum(packetBytes) 	56
attr interpolationmode  none
attr source  packetReceivedFromUpper
attr title  "packets received from higher layer, sum(packetBytes)"
scalar scenarioPRJP1.node[57].lo0.lo 	passedUpPk:count 	1
attr interpolationmode  none
attr source  packetSentToUpper
attr title  "packets passed to higher layer, count"
scalar scenarioPRJP1.node[57].lo0.lo 	passedUpPk:sum(packetBytes) 	56
attr interpolationmode  none
attr source  packetSentToUpper
attr title  "packets passed to higher layer, sum(packetBytes)"
scalar scenarioPRJP1.node[74].app 	"Total sent" 	5023
scalar scenarioPRJP1.node[74].app 	"Total received" 	1079
scalar scenarioPRJP1.node[74].app 	"Total deleted" 	110
scalar scenarioPRJP1.node[74].app 	dropPk:count 	110
attr interpolationmode  none
attr source  dropPk
attr title  "packets dropped, count"
scalar scenarioPRJP1.node[74].app 	dropPk:sum(packetBytes) 	56320
attr interpolationmode  none
attr source  dropPk
attr title  "packets dropped, sum(packetBytes)"
scalar scenarioPRJP1.node[74].app 	outOfOrderPk:count 	0
attr interpolationmode  none
attr source  outOfOrderPk
attr title  "packets received out of order, count"
scalar scenarioPRJP1.node[74].app 	outOfOrderPk:sum(packetBytes) 	0
attr interpolationmode  none
attr source  outOfOrderPk
attr title  "packets received out of order, sum(packetBytes)"
scalar scenarioPRJP1.node[74].app 	rcvdPk:count 	1079
attr interpolationmode  none
attr source  rcvdPk
attr title  "packets received, count"
scalar scenarioPRJP1.node[74].app 	rcvdPk:sum(packetBytes) 	552448
attr interpolationmode  none
attr source  rcvdPk
attr title  "packets received, sum(packetBytes)"
statistic scenarioPRJP1.node[74].app 	endToEndDelay:histogram
field count 1079
field mean 3.8145886520474
field stddev 5.241003341353
field sum 4115.9411555591
field sqrsum 45311.251498442
field min 0.000891106324
field max 19.694084134503
attr interpolationmode  none
attr source  messageAge(rcvdPk)
attr title  "delay, histogram"
attr unit  s
bin	-INF	0
bin	-9.646757509039	0
bin	-8.3604043187985	0
bin	-7.0740511285579	0
bin	-5.7876979383174	0
bin	-4.5013447480769	0
bin	-3.2149915578363	0
bin	-1.9286383675958	0
bin	-0.64228517735527	514
bin	0.64406801288527	103
bin	1.9304212031258	62
bin	3.2167743933663	61
bin	4.5031275836069	55
bin	5.7894807738474	44
bin	7.0758339640879	37
bin	8.3621871543285	32
bin	9.648540344569	28
bin	10.93489353481	29
bin	12.22124672505	23
bin	13.507599915291	29
bin	14.793953105531	11
bin	16.080306295772	14
bin	17.366659486012	22
bin	18.653012676253	15
bin	19.939365866493	0
bin	21.225719056734	0
bin	22.512072246974	0
bin	23.798425437215	0
bin	25.084778627455	0
bin	26.371131817696	0
bin	27.657485007936	0
bin	28.943838198177	0
scalar scenarioPRJP1.node[74].app 	sentPk:count 	5023
attr interpolationmode  none
attr source  sentPk
attr title  "packets sent, count"
scalar scenarioPRJP1.node[74].app 	sentPk:sum(packetBytes) 	2571776
attr interpolationmode  none
attr source  sentPk
attr title  "packets sent, sum(packetBytes)"
scalar scenarioPRJP1.node[74].udp 	droppedPkBadChecksum:count 	0
attr interpolationmode  none
attr title  "packets dropped (checksum error), count"
scalar scenarioPRJP1.node[74].udp 	droppedPkWrongPort:count 	1
attr interpolationmode  none
attr title  "packets dropped (wrong port), count"
scalar scenarioPRJP1.node[74].udp 	passedUpPk:count 	1189
attr interpolationmode  none
attr title  "packets passed up, count"
scalar scenarioPRJP1.node[74].udp 	rcvdPk:count 	1190
attr interpolationmode  none
attr source  rcvdPk
attr title  "packets received, count"
scalar scenarioPRJP1.node[74].udp 	rcvdPk:sum(packetBytes) 	618800
attr interpolationmode  none
attr source  rcvdPk
attr title  "packets received, sum(packetBytes)"
scalar scenarioPRJP1.node[74].udp 	sentPk:count 	5023
attr interpolationmode  none
attr source  sentPk
attr title  "packets sent, count"
scalar scenarioPRJP1.node[74].udp 	sentPk:sum(packetBytes) 	2611960
attr interpolationmode  none
attr source  sentPk
attr title  "packets sent, sum(packetBytes)"
scalar scenarioPRJP1.node[74].networkLayer.arp 	failedARPResolution:count 	26
attr title  "ARP failed resolutions, count"
scalar scenarioPRJP1.node[74].networkLayer.arp 	completedARPResolution:count 	1353
attr title  "ARP completed resolutions, count"
scalar scenarioPRJP1.node[74].networkLayer.arp 	initiatedARPResolution:count 	166
attr title  "ARP initiated resolutions, count"
scalar scenarioPRJP1.node[74].networkLayer.arp 	sentReply:count 	112
attr title  "ARP replies sent, count"
scalar scenarioPRJP1.node[74].networkLayer.arp 	sentReq:count 	291
attr title  "ARP request sent, count"
scalar scenarioPRJP1.node[74].mobility 	startTime 	7.4
scalar scenarioPRJP1.node[74].mobility 	totalTime 	1892.6
scalar scenarioPRJP1.node[74].mobility 	stopTime 	1900
scalar scenarioPRJP1.node[74].mobility 	minSpeed 	2.475602561769e-13
scalar scenarioPRJP1.node[74].mobility 	maxSpeed 	16.616069294134
scalar scenarioPRJP1.node[74].mobility 	totalDistance 	17180.379832012
scalar scenarioPRJP1.node[74].mobility 	totalCO2Emission 	4574.4715356923
scalar scenarioPRJP1.node[74].wlan.mgmt 	dataQueueLen:max 	30
attr interpolationmode  sample-hold
attr title  "data queue length, max"
scalar scenarioPRJP1.node[74].wlan.mgmt 	dataQueueLen:timeavg 	0
attr interpolationmode  sample-hold
attr title  "data queue length, timeavg"
scalar scenarioPRJP1.node[74].wlan.mgmt 	dropPkByQueue:count 	0
attr interpolationmode  none
attr source  dropPkByQueue
attr title  "packets dropped by queue, count"
scalar scenarioPRJP1.node[74].wlan.mgmt 	dropPkByQueue:sum(packetBytes) 	0
attr interpolationmode  none
attr source  dropPkByQueue
attr title  "packets dropped by queue, sum(packetBytes)"
scalar scenarioPRJP1.node[74].wlan.mac 	"number of received packets" 	7441
scalar scenarioPRJP1.node[74].wlan.mac 	"number of collisions" 	128824
scalar scenarioPRJP1.node[74].wlan.mac 	"number of internal collisions" 	0
scalar scenarioPRJP1.node[74].wlan.mac 	"number of retry for AC 0" 	19154
scalar scenarioPRJP1.node[74].wlan.mac 	"number of retry for AC 1" 	0
scalar scenarioPRJP1.node[74].wlan.mac 	"number of retry for AC 2" 	0
scalar scenarioPRJP1.node[74].wlan.mac 	"number of retry for AC 3" 	0
scalar scenarioPRJP1.node[74].wlan.mac 	"sent and received bits" 	69991152
scalar scenarioPRJP1.node[74].wlan.mac 	"sent packet within AC 0" 	7259
scalar scenarioPRJP1.node[74].wlan.mac 	"sent packet within AC 1" 	1
scalar scenarioPRJP1.node[74].wlan.mac 	"sent packet within AC 2" 	0
scalar scenarioPRJP1.node[74].wlan.mac 	"sent packet within AC 3" 	0
scalar scenarioPRJP1.node[74].wlan.mac 	"sent in TXOP " 	0
scalar scenarioPRJP1.node[74].wlan.mac 	"sentWithoutRetry AC 0" 	4821
scalar scenarioPRJP1.node[74].wlan.mac 	"sentWithoutRetry AC 1" 	1
scalar scenarioPRJP1.node[74].wlan.mac 	"sentWithoutRetry AC 2" 	0
scalar scenarioPRJP1.node[74].wlan.mac 	"sentWithoutRetry AC 3" 	0
scalar scenarioPRJP1.node[74].wlan.mac 	"numGivenUp AC 0" 	2043
scalar scenarioPRJP1.node[74].wlan.mac 	"numGivenUp AC 1" 	0
scalar scenarioPRJP1.node[74].wlan.mac 	"numGivenUp AC 2" 	0
scalar scenarioPRJP1.node[74].wlan.mac 	"numGivenUp AC 3" 	0
scalar scenarioPRJP1.node[74].wlan.mac 	"numDropped AC 0" 	0
scalar scenarioPRJP1.node[74].wlan.mac 	"numDropped AC 1" 	0
scalar scenarioPRJP1.node[74].wlan.mac 	"numDropped AC 2" 	0
scalar scenarioPRJP1.node[74].wlan.mac 	"numDropped AC 3" 	0
scalar scenarioPRJP1.node[74].wlan.mac 	rcvdPkFromLL:count 	386283
attr interpolationmode  none
attr source  packetReceivedFromLower
attr title  "packets received from lower layer, count"
scalar scenarioPRJP1.node[74].wlan.mac 	rcvdPkFromLL:sum(packetBytes) 	127523959
attr interpolationmode  none
attr source  packetReceivedFromLower
attr title  "packets received from lower layer, sum(packetBytes)"
scalar scenarioPRJP1.node[74].wlan.mac 	sentDownPk:count 	64574
attr interpolationmode  none
attr source  packetSentToLower
attr title  "packets sent to lower layer, count"
scalar scenarioPRJP1.node[74].wlan.mac 	sentDownPk:sum(packetBytes) 	20831472
attr interpolationmode  none
attr source  packetSentToLower
attr title  "packets sent to lower layer, sum(packetBytes)"
scalar scenarioPRJP1.node[74].wlan.mac 	rcvdPkFromHL:count 	37979
attr interpolationmode  none
attr source  packetReceivedFromUpper
attr title  "packets received from higher layer, count"
scalar scenarioPRJP1.node[74].wlan.mac 	rcvdPkFromHL:sum(packetBytes) 	9907292
attr interpolationmode  none
attr source  packetReceivedFromUpper
attr title  "packets received from higher layer, sum(packetBytes)"
scalar scenarioPRJP1.node[74].wlan.mac 	passedUpPk:count 	123369
attr interpolationmode  none
attr source  packetSentToUpper
attr title  "packets passed to higher layer, count"
scalar scenarioPRJP1.node[74].wlan.mac 	passedUpPk:sum(packetBytes) 	22746678
attr interpolationmode  none
attr source  packetSentToUpper
attr title  "packets passed to higher layer, sum(packetBytes)"
statistic scenarioPRJP1.node[74].wlan.radio 	radioChannel:histogram
field count 1
field mean 3
field stddev -nan
field sum 3
field sqrsum 9
field min 3
field max 3
attr interpolationmode  sample-hold
attr source  radioChannelChanged
attr title  "Radio channel, histogram"
bin	-INF	0
bin	2	0
bin	3	1
bin	4	0
scalar scenarioPRJP1.node[74].wlan.radio 	transmissionState:count 	258296
attr interpolationmode  sample-hold
attr source  transmissionStateChanged
attr title  "Radio transmission state, count"
scalar scenarioPRJP1.node[74].wlan.radio 	receptionState:count 	1766885
attr interpolationmode  sample-hold
attr source  receptionStateChanged
attr title  "Radio reception state, count"
scalar scenarioPRJP1.node[74].wlan.radio 	radioMode:count 	129150
attr interpolationmode  sample-hold
attr source  radioModeChanged
attr title  "Radio mode, count"
statistic scenarioPRJP1.node[74].wlan.radio 	symbolErrorRate:histogram
field count 0
field mean -nan
field stddev -nan
field sum 0
field sqrsum 0
field min -nan
field max -nan
attr source  symbolErrorRate
attr title  "Symbol error rate, histogram"
bin	-INF	0
bin	-0.5	0
bin	-0.46666666666667	0
bin	-0.43333333333333	0
bin	-0.4	0
bin	-0.36666666666667	0
bin	-0.33333333333333	0
bin	-0.3	0
bin	-0.26666666666667	0
bin	-0.23333333333333	0
bin	-0.2	0
bin	-0.16666666666667	0
bin	-0.13333333333333	0
bin	-0.1	0
bin	-0.066666666666667	0
bin	-0.033333333333333	0
bin	0	0
bin	0.033333333333333	0
bin	0.066666666666667	0
bin	0.1	0
bin	0.13333333333333	0
bin	0.16666666666667	0
bin	0.2	0
bin	0.23333333333333	0
bin	0.26666666666667	0
bin	0.3	0
bin	0.33333333333333	0
bin	0.36666666666667	0
bin	0.4	0
bin	0.43333333333333	0
bin	0.46666666666667	0
bin	0.5	0
statistic scenarioPRJP1.node[74].wlan.radio 	bitErrorRate:histogram
field count 0
field mean -nan
field stddev -nan
field sum 0
field sqrsum 0
field min -nan
field max -nan
attr source  bitErrorRate
attr title  "Bit error rate, histogram"
bin	-INF	0
bin	-0.5	0
bin	-0.46666666666667	0
bin	-0.43333333333333	0
bin	-0.4	0
bin	-0.36666666666667	0
bin	-0.33333333333333	0
bin	-0.3	0
bin	-0.26666666666667	0
bin	-0.23333333333333	0
bin	-0.2	0
bin	-0.16666666666667	0
bin	-0.13333333333333	0
bin	-0.1	0
bin	-0.066666666666667	0
bin	-0.033333333333333	0
bin	0	0
bin	0.033333333333333	0
bin	0.066666666666667	0
bin	0.1	0
bin	0.13333333333333	0
bin	0.16666666666667	0
bin	0.2	0
bin	0.23333333333333	0
bin	0.26666666666667	0
bin	0.3	0
bin	0.33333333333333	0
bin	0.36666666666667	0
bin	0.4	0
bin	0.43333333333333	0
bin	0.46666666666667	0
bin	0.5	0
statistic scenarioPRJP1.node[74].wlan.radio 	packetErrorRate:histogram
field count 386283
field mean 0.30260781026579
field stddev 0.44779806173713
field sum 116892.2527729
field sqrsum 112830.97434487
field min 0
field max 1
attr source  packetErrorRate
attr title  "Packet error rate, histogram"
bin	-INF	0
bin	-0.5	0
bin	-0.43333333333333	0
bin	-0.36666666666667	0
bin	-0.3	0
bin	-0.23333333333333	0
bin	-0.16666666666667	0
bin	-0.1	0
bin	-0.033333333333333	252737
bin	0.033333333333333	6806
bin	0.1	3247
bin	0.16666666666667	2218
bin	0.23333333333333	1649
bin	0.3	1543
bin	0.36666666666667	1281
bin	0.43333333333333	1195
bin	0.5	1093
bin	0.56666666666667	1070
bin	0.63333333333333	1082
bin	0.7	1084
bin	0.76666666666667	1166
bin	0.83333333333333	1499
bin	0.9	2199
bin	0.96666666666667	106414
bin	1.0333333333333	0
bin	1.1	0
bin	1.1666666666667	0
bin	1.2333333333333	0
bin	1.3	0
bin	1.3666666666667	0
bin	1.4333333333333	0
bin	1.5	0
statistic scenarioPRJP1.node[74].wlan.radio 	minSNIR:histogram
field count 386283
field mean 3094.2218933874
field stddev 70677.016041472
field sum 1195245315.6434
field sqrsum 1.9332698823311e+15
field min 0.00010763601731144
field max 3012958.8769377
attr source  minSNIR
attr title  "Min SNIR, histogram"
bin	-INF	0
bin	-93359.188464601	0
bin	-80911.26566769	0
bin	-68463.342870779	0
bin	-56015.420073867	0
bin	-43567.497276956	0
bin	-31119.574480045	0
bin	-18671.651683133	0
bin	-6223.7288862219	376041
bin	6224.1939106894	6046
bin	18672.116707601	1221
bin	31120.039504512	518
bin	43567.962301423	354
bin	56015.885098335	202
bin	68463.807895246	375
bin	80911.730692157	210
bin	93359.653489069	164
bin	105807.57628598	65
bin	118255.49908289	62
bin	130703.4218798	95
bin	143151.34467671	47
bin	155599.26747363	52
bin	168047.19027054	47
bin	180495.11306745	39
bin	192943.03586436	25
bin	205390.95866127	31
bin	217838.88145818	23
bin	230286.80425509	20
bin	242734.727052	22
bin	255182.64984892	17
bin	267630.57264583	13
bin	280078.49544274	594
scalar scenarioPRJP1.node[74].lo0.lo 	droppedPkBitError:count 	0
attr interpolationmode  none
attr source  dropPkBitError
attr title  "packets dropped/bit error, count"
scalar scenarioPRJP1.node[74].lo0.lo 	droppedPkBitError:sum(packetBytes) 	0
attr interpolationmode  none
attr source  dropPkBitError
attr title  "packets dropped/bit error, sum(packetBytes)"
scalar scenarioPRJP1.node[74].lo0.lo 	rcvdPkFromHL:count 	0
attr interpolationmode  none
attr source  packetReceivedFromUpper
attr title  "packets received from higher layer, count"
scalar scenarioPRJP1.node[74].lo0.lo 	rcvdPkFromHL:sum(packetBytes) 	0
attr interpolationmode  none
attr source  packetReceivedFromUpper
attr title  "packets received from higher layer, sum(packetBytes)"
scalar scenarioPRJP1.node[74].lo0.lo 	passedUpPk:count 	0
attr interpolationmode  none
attr source  packetSentToUpper
attr title  "packets passed to higher layer, count"
scalar scenarioPRJP1.node[74].lo0.lo 	passedUpPk:sum(packetBytes) 	0
attr interpolationmode  none
attr source  packetSentToUpper
attr title  "packets passed to higher layer, sum(packetBytes)"
