version 2
run AODVRouting-TRG-50n-0-20150730-08:36:21-7850
attr configname AODVRouting-TRG-50n
attr datetime 20150730-08:36:21
attr experiment AODVRouting-TRG-50n
attr inifile omnetpp.ini
attr iterationvars ""
attr iterationvars2 $repetition=0
attr measurement ""
attr network Prj_Part1_propag.scenarioPRJP1
attr processid 7850
attr repetition 0
attr replication #0
attr resultdir results
attr runnumber 0
attr seedset 0

scalar scenarioPRJP1.radioMedium.propagation 	"Arrival computation count" 	43580110
scalar scenarioPRJP1.radioMedium 	"transmission count" 	889390
scalar scenarioPRJP1.radioMedium 	"radio frame send count" 	43580110
scalar scenarioPRJP1.radioMedium 	"reception computation count" 	43439726
scalar scenarioPRJP1.radioMedium 	"interference computation count" 	127005453
scalar scenarioPRJP1.radioMedium 	"reception decision computation count" 	3318153
scalar scenarioPRJP1.radioMedium 	"listening decision computation count" 	80572344
scalar scenarioPRJP1.radioMedium 	"reception cache hit" 	77.965724077783
attr unit  %
scalar scenarioPRJP1.radioMedium 	"interference cache hit" 	50
attr unit  %
scalar scenarioPRJP1.radioMedium 	"noise cache hit" 	0
attr unit  %
scalar scenarioPRJP1.radioMedium 	"snir cache hit" 	0
attr unit  %
scalar scenarioPRJP1.radioMedium 	"reception decision cache hit" 	0
attr unit  %
scalar scenarioPRJP1.node[0].app 	"Total sent" 	2611
scalar scenarioPRJP1.node[0].app 	"Total received" 	222
scalar scenarioPRJP1.node[0].app 	"Total deleted" 	94
scalar scenarioPRJP1.node[0].app 	dropPk:count 	94
attr interpolationmode  none
attr source  dropPk
attr title  "packets dropped, count"
scalar scenarioPRJP1.node[0].app 	dropPk:sum(packetBytes) 	48128
attr interpolationmode  none
attr source  dropPk
attr title  "packets dropped, sum(packetBytes)"
scalar scenarioPRJP1.node[0].app 	outOfOrderPk:count 	62
attr interpolationmode  none
attr source  outOfOrderPk
attr title  "packets received out of order, count"
scalar scenarioPRJP1.node[0].app 	outOfOrderPk:sum(packetBytes) 	31744
attr interpolationmode  none
attr source  outOfOrderPk
attr title  "packets received out of order, sum(packetBytes)"
scalar scenarioPRJP1.node[0].app 	rcvdPk:count 	222
attr interpolationmode  none
attr source  rcvdPk
attr title  "packets received, count"
scalar scenarioPRJP1.node[0].app 	rcvdPk:sum(packetBytes) 	113664
attr interpolationmode  none
attr source  rcvdPk
attr title  "packets received, sum(packetBytes)"
statistic scenarioPRJP1.node[0].app 	endToEndDelay:histogram
field count 222
field mean 1.4595500263728
field stddev 4.2026523287554
field sum 324.02010585477
field sqrsum 4376.2888918485
field min 0.000945015493
field max 19.994966975356
attr interpolationmode  none
attr source  messageAge(rcvdPk)
attr title  "delay, histogram"
attr unit  s
bin	-INF	0
bin	-9.9960659644385	0
bin	-8.6631311671143	0
bin	-7.3301963697901	0
bin	-5.9972615724659	0
bin	-4.6643267751417	0
bin	-3.3313919778175	0
bin	-1.9984571804933	0
bin	-0.6655223831691	191
bin	0.6674124141551	4
bin	2.0003472114793	1
bin	3.3332820088035	1
bin	4.6662168061277	2
bin	5.9991516034519	1
bin	7.3320864007761	1
bin	8.6650211981003	7
bin	9.9979559954245	1
bin	11.330890792749	2
bin	12.663825590073	0
bin	13.996760387397	3
bin	15.329695184721	1
bin	16.662629982046	4
bin	17.99556477937	2
bin	19.328499576694	1
bin	20.661434374018	0
bin	21.994369171342	0
bin	23.327303968666	0
bin	24.660238765991	0
bin	25.993173563315	0
bin	27.326108360639	0
bin	28.659043157963	0
bin	29.991977955288	0
scalar scenarioPRJP1.node[0].app 	sentPk:count 	2611
attr interpolationmode  none
attr source  sentPk
attr title  "packets sent, count"
scalar scenarioPRJP1.node[0].app 	sentPk:sum(packetBytes) 	1336832
attr interpolationmode  none
attr source  sentPk
attr title  "packets sent, sum(packetBytes)"
scalar scenarioPRJP1.node[0].udp 	droppedPkBadChecksum:count 	0
attr interpolationmode  none
attr title  "packets dropped (checksum error), count"
scalar scenarioPRJP1.node[0].udp 	droppedPkWrongPort:count 	0
attr interpolationmode  none
attr title  "packets dropped (wrong port), count"
scalar scenarioPRJP1.node[0].udp 	passedUpPk:count 	378
attr interpolationmode  none
attr title  "packets passed up, count"
scalar scenarioPRJP1.node[0].udp 	rcvdPk:count 	378
attr interpolationmode  none
attr source  rcvdPk
attr title  "packets received, count"
scalar scenarioPRJP1.node[0].udp 	rcvdPk:sum(packetBytes) 	196560
attr interpolationmode  none
attr source  rcvdPk
attr title  "packets received, sum(packetBytes)"
scalar scenarioPRJP1.node[0].udp 	sentPk:count 	2611
attr interpolationmode  none
attr source  sentPk
attr title  "packets sent, count"
scalar scenarioPRJP1.node[0].udp 	sentPk:sum(packetBytes) 	1357720
attr interpolationmode  none
attr source  sentPk
attr title  "packets sent, sum(packetBytes)"
scalar scenarioPRJP1.node[0].networkLayer.arp 	failedARPResolution:count 	6
attr title  "ARP failed resolutions, count"
scalar scenarioPRJP1.node[0].networkLayer.arp 	completedARPResolution:count 	267
attr title  "ARP completed resolutions, count"
scalar scenarioPRJP1.node[0].networkLayer.arp 	initiatedARPResolution:count 	38
attr title  "ARP initiated resolutions, count"
scalar scenarioPRJP1.node[0].networkLayer.arp 	sentReply:count 	40
attr title  "ARP replies sent, count"
scalar scenarioPRJP1.node[0].networkLayer.arp 	sentReq:count 	55
attr title  "ARP request sent, count"
scalar scenarioPRJP1.node[0].mobility 	startTime 	0.1
scalar scenarioPRJP1.node[0].mobility 	totalTime 	949.8
scalar scenarioPRJP1.node[0].mobility 	stopTime 	950
scalar scenarioPRJP1.node[0].mobility 	minSpeed 	2.4754237171175e-13
scalar scenarioPRJP1.node[0].mobility 	maxSpeed 	16.158200773551
scalar scenarioPRJP1.node[0].mobility 	totalDistance 	8206.4464597185
scalar scenarioPRJP1.node[0].mobility 	totalCO2Emission 	2290.524020987
scalar scenarioPRJP1.node[0].wlan[0].mgmt 	dataQueueLen:max 	38
attr interpolationmode  sample-hold
attr title  "data queue length, max"
scalar scenarioPRJP1.node[0].wlan[0].mgmt 	dataQueueLen:timeavg 	0
attr interpolationmode  sample-hold
attr title  "data queue length, timeavg"
scalar scenarioPRJP1.node[0].wlan[0].mgmt 	dropPkByQueue:count 	0
attr interpolationmode  none
attr source  dropPkByQueue
attr title  "packets dropped by queue, count"
scalar scenarioPRJP1.node[0].wlan[0].mgmt 	dropPkByQueue:sum(packetBytes) 	0
attr interpolationmode  none
attr source  dropPkByQueue
attr title  "packets dropped by queue, sum(packetBytes)"
scalar scenarioPRJP1.node[0].wlan[0].mac 	"number of received packets" 	4578
scalar scenarioPRJP1.node[0].wlan[0].mac 	"number of collisions" 	5248
scalar scenarioPRJP1.node[0].wlan[0].mac 	"number of internal collisions" 	0
scalar scenarioPRJP1.node[0].wlan[0].mac 	"number of retry for AC 0" 	4600
scalar scenarioPRJP1.node[0].wlan[0].mac 	"number of retry for AC 1" 	0
scalar scenarioPRJP1.node[0].wlan[0].mac 	"number of retry for AC 2" 	0
scalar scenarioPRJP1.node[0].wlan[0].mac 	"number of retry for AC 3" 	0
scalar scenarioPRJP1.node[0].wlan[0].mac 	"sent and received bits" 	9029152
scalar scenarioPRJP1.node[0].wlan[0].mac 	"sent packet within AC 0" 	606
scalar scenarioPRJP1.node[0].wlan[0].mac 	"sent packet within AC 1" 	0
scalar scenarioPRJP1.node[0].wlan[0].mac 	"sent packet within AC 2" 	0
scalar scenarioPRJP1.node[0].wlan[0].mac 	"sent packet within AC 3" 	0
scalar scenarioPRJP1.node[0].wlan[0].mac 	"sent in TXOP " 	0
scalar scenarioPRJP1.node[0].wlan[0].mac 	"sentWithoutRetry AC 0" 	571
scalar scenarioPRJP1.node[0].wlan[0].mac 	"sentWithoutRetry AC 1" 	0
scalar scenarioPRJP1.node[0].wlan[0].mac 	"sentWithoutRetry AC 2" 	0
scalar scenarioPRJP1.node[0].wlan[0].mac 	"sentWithoutRetry AC 3" 	0
scalar scenarioPRJP1.node[0].wlan[0].mac 	"numGivenUp AC 0" 	755
scalar scenarioPRJP1.node[0].wlan[0].mac 	"numGivenUp AC 1" 	0
scalar scenarioPRJP1.node[0].wlan[0].mac 	"numGivenUp AC 2" 	0
scalar scenarioPRJP1.node[0].wlan[0].mac 	"numGivenUp AC 3" 	0
scalar scenarioPRJP1.node[0].wlan[0].mac 	"numDropped AC 0" 	0
scalar scenarioPRJP1.node[0].wlan[0].mac 	"numDropped AC 1" 	0
scalar scenarioPRJP1.node[0].wlan[0].mac 	"numDropped AC 2" 	0
scalar scenarioPRJP1.node[0].wlan[0].mac 	"numDropped AC 3" 	0
scalar scenarioPRJP1.node[0].wlan[0].mac 	rcvdPkFromLL:count 	82532
attr interpolationmode  none
attr source  packetReceivedFromLower
attr title  "packets received from lower layer, count"
scalar scenarioPRJP1.node[0].wlan[0].mac 	rcvdPkFromLL:sum(packetBytes) 	16781014
attr interpolationmode  none
attr source  packetReceivedFromLower
attr title  "packets received from lower layer, sum(packetBytes)"
scalar scenarioPRJP1.node[0].wlan[0].mac 	sentDownPk:count 	19746
attr interpolationmode  none
attr source  packetSentToLower
attr title  "packets sent to lower layer, count"
scalar scenarioPRJP1.node[0].wlan[0].mac 	sentDownPk:sum(packetBytes) 	3863816
attr interpolationmode  none
attr source  packetSentToLower
attr title  "packets sent to lower layer, sum(packetBytes)"
scalar scenarioPRJP1.node[0].wlan[0].mac 	rcvdPkFromHL:count 	10568
attr interpolationmode  none
attr source  packetReceivedFromUpper
attr title  "packets received from higher layer, count"
scalar scenarioPRJP1.node[0].wlan[0].mac 	rcvdPkFromHL:sum(packetBytes) 	1504748
attr interpolationmode  none
attr source  packetReceivedFromUpper
attr title  "packets received from higher layer, sum(packetBytes)"
scalar scenarioPRJP1.node[0].wlan[0].mac 	passedUpPk:count 	34965
attr interpolationmode  none
attr source  packetSentToUpper
attr title  "packets passed to higher layer, count"
scalar scenarioPRJP1.node[0].wlan[0].mac 	passedUpPk:sum(packetBytes) 	3573480
attr interpolationmode  none
attr source  packetSentToUpper
attr title  "packets passed to higher layer, sum(packetBytes)"
statistic scenarioPRJP1.node[0].wlan[0].radio 	radioChannel:histogram
field count 1
field mean 3
field stddev nan
field sum 3
field sqrsum 9
field min 3
field max 3
attr interpolationmode  sample-hold
attr source  radioChannelChanged
attr title  "Radio channel, histogram"
bin	-INF	0
bin	2	0
bin	3	1
bin	4	0
scalar scenarioPRJP1.node[0].wlan[0].radio 	transmissionState:count 	78984
attr interpolationmode  sample-hold
attr source  transmissionStateChanged
attr title  "Radio transmission state, count"
scalar scenarioPRJP1.node[0].wlan[0].radio 	receptionState:count 	205030
attr interpolationmode  sample-hold
attr source  receptionStateChanged
attr title  "Radio reception state, count"
scalar scenarioPRJP1.node[0].wlan[0].radio 	radioMode:count 	39494
attr interpolationmode  sample-hold
attr source  radioModeChanged
attr title  "Radio mode, count"
statistic scenarioPRJP1.node[0].wlan[0].radio 	symbolErrorRate:histogram
field count 0
field mean nan
field stddev nan
field sum 0
field sqrsum 0
field min nan
field max nan
attr source  symbolErrorRate
attr title  "Symbol error rate, histogram"
bin	-INF	0
bin	-0.5	0
bin	-0.46666666666667	0
bin	-0.43333333333333	0
bin	-0.4	0
bin	-0.36666666666667	0
bin	-0.33333333333333	0
bin	-0.3	0
bin	-0.26666666666667	0
bin	-0.23333333333333	0
bin	-0.2	0
bin	-0.16666666666667	0
bin	-0.13333333333333	0
bin	-0.1	0
bin	-0.066666666666667	0
bin	-0.033333333333333	0
bin	0	0
bin	0.033333333333333	0
bin	0.066666666666667	0
bin	0.1	0
bin	0.13333333333333	0
bin	0.16666666666667	0
bin	0.2	0
bin	0.23333333333333	0
bin	0.26666666666667	0
bin	0.3	0
bin	0.33333333333333	0
bin	0.36666666666667	0
bin	0.4	0
bin	0.43333333333333	0
bin	0.46666666666667	0
bin	0.5	0
statistic scenarioPRJP1.node[0].wlan[0].radio 	bitErrorRate:histogram
field count 0
field mean nan
field stddev nan
field sum 0
field sqrsum 0
field min nan
field max nan
attr source  bitErrorRate
attr title  "Bit error rate, histogram"
bin	-INF	0
bin	-0.5	0
bin	-0.46666666666667	0
bin	-0.43333333333333	0
bin	-0.4	0
bin	-0.36666666666667	0
bin	-0.33333333333333	0
bin	-0.3	0
bin	-0.26666666666667	0
bin	-0.23333333333333	0
bin	-0.2	0
bin	-0.16666666666667	0
bin	-0.13333333333333	0
bin	-0.1	0
bin	-0.066666666666667	0
bin	-0.033333333333333	0
bin	0	0
bin	0.033333333333333	0
bin	0.066666666666667	0
bin	0.1	0
bin	0.13333333333333	0
bin	0.16666666666667	0
bin	0.2	0
bin	0.23333333333333	0
bin	0.26666666666667	0
bin	0.3	0
bin	0.33333333333333	0
bin	0.36666666666667	0
bin	0.4	0
bin	0.43333333333333	0
bin	0.46666666666667	0
bin	0.5	0
statistic scenarioPRJP1.node[0].wlan[0].radio 	packetErrorRate:histogram
field count 82532
field mean 0.05656679033326
field stddev 0.22451057187596
field sum 4668.5703397846
field sqrsum 4424.0608374057
field min 0
field max 1
attr source  packetErrorRate
attr title  "Packet error rate, histogram"
bin	-INF	0
bin	-0.5	0
bin	-0.43333333333333	0
bin	-0.36666666666667	0
bin	-0.3	0
bin	-0.23333333333333	0
bin	-0.16666666666667	0
bin	-0.1	0
bin	-0.033333333333333	76821
bin	0.033333333333333	457
bin	0.1	176
bin	0.16666666666667	150
bin	0.23333333333333	111
bin	0.3	89
bin	0.36666666666667	96
bin	0.43333333333333	69
bin	0.5	43
bin	0.56666666666667	58
bin	0.63333333333333	47
bin	0.7	77
bin	0.76666666666667	80
bin	0.83333333333333	91
bin	0.9	114
bin	0.96666666666667	4053
bin	1.0333333333333	0
bin	1.1	0
bin	1.1666666666667	0
bin	1.2333333333333	0
bin	1.3	0
bin	1.3666666666667	0
bin	1.4333333333333	0
bin	1.5	0
statistic scenarioPRJP1.node[0].wlan[0].radio 	minSNIR:histogram
field count 82532
field mean 13912.735477393
field stddev 168339.99716622
field sum 1148245884.4202
field sqrsum 2.3547679885356e+15
field min 0.00020501264041154
field max 43097182.32247
attr source  minSNIR
attr title  "Min SNIR, histogram"
bin	-INF	0
bin	-372.69509257416	0
bin	-322.95236517256	0
bin	-273.20963777095	0
bin	-223.46691036935	0
bin	-173.72418296774	0
bin	-123.98145556613	0
bin	-74.238728164529	0
bin	-24.496000762923	19325
bin	25.246726638683	6381
bin	74.989454040289	3170
bin	124.73218144189	10192
bin	174.4749088435	7413
bin	224.21763624511	3461
bin	273.96036364671	2804
bin	323.70309104832	2271
bin	373.44581844992	1786
bin	423.18854585153	1497
bin	472.93127325314	981
bin	522.67400065474	766
bin	572.41672805635	730
bin	622.15945545795	638
bin	671.90218285956	561
bin	721.64491026117	443
bin	771.38763766277	374
bin	821.13036506438	423
bin	870.87309246598	395
bin	920.61581986759	411
bin	970.3585472692	337
bin	1020.1012746708	351
bin	1069.8440020724	262
bin	1119.586729474	17560
scalar scenarioPRJP1.node[0].lo0.lo 	droppedPkBitError:count 	0
attr interpolationmode  none
attr source  dropPkBitError
attr title  "packets dropped/bit error, count"
scalar scenarioPRJP1.node[0].lo0.lo 	droppedPkBitError:sum(packetBytes) 	0
attr interpolationmode  none
attr source  dropPkBitError
attr title  "packets dropped/bit error, sum(packetBytes)"
scalar scenarioPRJP1.node[0].lo0.lo 	rcvdPkFromHL:count 	0
attr interpolationmode  none
attr source  packetReceivedFromUpper
attr title  "packets received from higher layer, count"
scalar scenarioPRJP1.node[0].lo0.lo 	rcvdPkFromHL:sum(packetBytes) 	0
attr interpolationmode  none
attr source  packetReceivedFromUpper
attr title  "packets received from higher layer, sum(packetBytes)"
scalar scenarioPRJP1.node[0].lo0.lo 	passedUpPk:count 	0
attr interpolationmode  none
attr source  packetSentToUpper
attr title  "packets passed to higher layer, count"
scalar scenarioPRJP1.node[0].lo0.lo 	passedUpPk:sum(packetBytes) 	0
attr interpolationmode  none
attr source  packetSentToUpper
attr title  "packets passed to higher layer, sum(packetBytes)"
scalar scenarioPRJP1.node[21].app 	"Total sent" 	2607
scalar scenarioPRJP1.node[21].app 	"Total received" 	130
scalar scenarioPRJP1.node[21].app 	"Total deleted" 	107
scalar scenarioPRJP1.node[21].app 	dropPk:count 	107
attr interpolationmode  none
attr source  dropPk
attr title  "packets dropped, count"
scalar scenarioPRJP1.node[21].app 	dropPk:sum(packetBytes) 	54784
attr interpolationmode  none
attr source  dropPk
attr title  "packets dropped, sum(packetBytes)"
scalar scenarioPRJP1.node[21].app 	outOfOrderPk:count 	28
attr interpolationmode  none
attr source  outOfOrderPk
attr title  "packets received out of order, count"
scalar scenarioPRJP1.node[21].app 	outOfOrderPk:sum(packetBytes) 	14336
attr interpolationmode  none
attr source  outOfOrderPk
attr title  "packets received out of order, sum(packetBytes)"
scalar scenarioPRJP1.node[21].app 	rcvdPk:count 	130
attr interpolationmode  none
attr source  rcvdPk
attr title  "packets received, count"
scalar scenarioPRJP1.node[21].app 	rcvdPk:sum(packetBytes) 	66560
attr interpolationmode  none
attr source  rcvdPk
attr title  "packets received, sum(packetBytes)"
statistic scenarioPRJP1.node[21].app 	endToEndDelay:histogram
field count 130
field mean 1.7919694515435
field stddev 4.350440165256
field sum 232.95602870066
field sqrsum 2858.9466094445
field min 0.000945064523
field max 19.887914249741
attr interpolationmode  none
attr source  messageAge(rcvdPk)
attr title  "delay, histogram"
attr unit  s
bin	-INF	0
bin	-8.3105851735235	0
bin	-7.202381141784	0
bin	-6.0941771100444	0
bin	-4.9859730783049	0
bin	-3.8777690465654	0
bin	-2.7695650148258	0
bin	-1.6613609830863	0
bin	-0.55315695134677	105
bin	0.55504708039276	0
bin	1.6632511121323	4
bin	2.7714551438718	3
bin	3.8796591756114	1
bin	4.9878632073509	1
bin	6.0960672390904	2
bin	7.20427127083	0
bin	8.3124753025695	2
bin	9.420679334309	1
bin	10.528883366049	0
bin	11.637087397788	2
bin	12.745291429528	3
bin	13.853495461267	3
bin	14.961699493007	0
bin	16.069903524746	1
bin	17.178107556486	1
bin	18.286311588225	0
bin	19.394515619965	1
bin	20.502719651704	0
bin	21.610923683444	0
bin	22.719127715183	0
bin	23.827331746923	0
bin	24.935535778663	0
scalar scenarioPRJP1.node[21].app 	sentPk:count 	2607
attr interpolationmode  none
attr source  sentPk
attr title  "packets sent, count"
scalar scenarioPRJP1.node[21].app 	sentPk:sum(packetBytes) 	1334784
attr interpolationmode  none
attr source  sentPk
attr title  "packets sent, sum(packetBytes)"
scalar scenarioPRJP1.node[21].udp 	droppedPkBadChecksum:count 	0
attr interpolationmode  none
attr title  "packets dropped (checksum error), count"
scalar scenarioPRJP1.node[21].udp 	droppedPkWrongPort:count 	0
attr interpolationmode  none
attr title  "packets dropped (wrong port), count"
scalar scenarioPRJP1.node[21].udp 	passedUpPk:count 	265
attr interpolationmode  none
attr title  "packets passed up, count"
scalar scenarioPRJP1.node[21].udp 	rcvdPk:count 	265
attr interpolationmode  none
attr source  rcvdPk
attr title  "packets received, count"
scalar scenarioPRJP1.node[21].udp 	rcvdPk:sum(packetBytes) 	137800
attr interpolationmode  none
attr source  rcvdPk
attr title  "packets received, sum(packetBytes)"
scalar scenarioPRJP1.node[21].udp 	sentPk:count 	2607
attr interpolationmode  none
attr source  sentPk
attr title  "packets sent, count"
scalar scenarioPRJP1.node[21].udp 	sentPk:sum(packetBytes) 	1355640
attr interpolationmode  none
attr source  sentPk
attr title  "packets sent, sum(packetBytes)"
scalar scenarioPRJP1.node[21].networkLayer.arp 	failedARPResolution:count 	1
attr title  "ARP failed resolutions, count"
scalar scenarioPRJP1.node[21].networkLayer.arp 	completedARPResolution:count 	150
attr title  "ARP completed resolutions, count"
scalar scenarioPRJP1.node[21].networkLayer.arp 	initiatedARPResolution:count 	30
attr title  "ARP initiated resolutions, count"
scalar scenarioPRJP1.node[21].networkLayer.arp 	sentReply:count 	24
attr title  "ARP replies sent, count"
scalar scenarioPRJP1.node[21].networkLayer.arp 	sentReq:count 	38
attr title  "ARP request sent, count"
scalar scenarioPRJP1.node[21].mobility 	startTime 	2.5
scalar scenarioPRJP1.node[21].mobility 	totalTime 	947.4
scalar scenarioPRJP1.node[21].mobility 	stopTime 	950
scalar scenarioPRJP1.node[21].mobility 	minSpeed 	2.4754563898677e-13
scalar scenarioPRJP1.node[21].mobility 	maxSpeed 	18.61133626926
scalar scenarioPRJP1.node[21].mobility 	totalDistance 	9974.8590125139
scalar scenarioPRJP1.node[21].mobility 	totalCO2Emission 	2696.6658593327
scalar scenarioPRJP1.node[21].wlan[0].mgmt 	dataQueueLen:max 	23
attr interpolationmode  sample-hold
attr title  "data queue length, max"
scalar scenarioPRJP1.node[21].wlan[0].mgmt 	dataQueueLen:timeavg 	0
attr interpolationmode  sample-hold
attr title  "data queue length, timeavg"
scalar scenarioPRJP1.node[21].wlan[0].mgmt 	dropPkByQueue:count 	0
attr interpolationmode  none
attr source  dropPkByQueue
attr title  "packets dropped by queue, count"
scalar scenarioPRJP1.node[21].wlan[0].mgmt 	dropPkByQueue:sum(packetBytes) 	0
attr interpolationmode  none
attr source  dropPkByQueue
attr title  "packets dropped by queue, sum(packetBytes)"
scalar scenarioPRJP1.node[21].wlan[0].mac 	"number of received packets" 	2184
scalar scenarioPRJP1.node[21].wlan[0].mac 	"number of collisions" 	2510
scalar scenarioPRJP1.node[21].wlan[0].mac 	"number of internal collisions" 	0
scalar scenarioPRJP1.node[21].wlan[0].mac 	"number of retry for AC 0" 	2705
scalar scenarioPRJP1.node[21].wlan[0].mac 	"number of retry for AC 1" 	0
scalar scenarioPRJP1.node[21].wlan[0].mac 	"number of retry for AC 2" 	0
scalar scenarioPRJP1.node[21].wlan[0].mac 	"number of retry for AC 3" 	0
scalar scenarioPRJP1.node[21].wlan[0].mac 	"sent and received bits" 	6704736
scalar scenarioPRJP1.node[21].wlan[0].mac 	"sent packet within AC 0" 	332
scalar scenarioPRJP1.node[21].wlan[0].mac 	"sent packet within AC 1" 	0
scalar scenarioPRJP1.node[21].wlan[0].mac 	"sent packet within AC 2" 	0
scalar scenarioPRJP1.node[21].wlan[0].mac 	"sent packet within AC 3" 	0
scalar scenarioPRJP1.node[21].wlan[0].mac 	"sent in TXOP " 	0
scalar scenarioPRJP1.node[21].wlan[0].mac 	"sentWithoutRetry AC 0" 	302
scalar scenarioPRJP1.node[21].wlan[0].mac 	"sentWithoutRetry AC 1" 	0
scalar scenarioPRJP1.node[21].wlan[0].mac 	"sentWithoutRetry AC 2" 	0
scalar scenarioPRJP1.node[21].wlan[0].mac 	"sentWithoutRetry AC 3" 	0
scalar scenarioPRJP1.node[21].wlan[0].mac 	"numGivenUp AC 0" 	443
scalar scenarioPRJP1.node[21].wlan[0].mac 	"numGivenUp AC 1" 	0
scalar scenarioPRJP1.node[21].wlan[0].mac 	"numGivenUp AC 2" 	0
scalar scenarioPRJP1.node[21].wlan[0].mac 	"numGivenUp AC 3" 	0
scalar scenarioPRJP1.node[21].wlan[0].mac 	"numDropped AC 0" 	0
scalar scenarioPRJP1.node[21].wlan[0].mac 	"numDropped AC 1" 	0
scalar scenarioPRJP1.node[21].wlan[0].mac 	"numDropped AC 2" 	0
scalar scenarioPRJP1.node[21].wlan[0].mac 	"numDropped AC 3" 	0
scalar scenarioPRJP1.node[21].wlan[0].mac 	rcvdPkFromLL:count 	46435
attr interpolationmode  none
attr source  packetReceivedFromLower
attr title  "packets received from lower layer, count"
scalar scenarioPRJP1.node[21].wlan[0].mac 	rcvdPkFromLL:sum(packetBytes) 	9330720
attr interpolationmode  none
attr source  packetReceivedFromLower
attr title  "packets received from lower layer, sum(packetBytes)"
scalar scenarioPRJP1.node[21].wlan[0].mac 	sentDownPk:count 	13189
attr interpolationmode  none
attr source  packetSentToLower
attr title  "packets sent to lower layer, count"
scalar scenarioPRJP1.node[21].wlan[0].mac 	sentDownPk:sum(packetBytes) 	2409360
attr interpolationmode  none
attr source  packetSentToLower
attr title  "packets sent to lower layer, sum(packetBytes)"
scalar scenarioPRJP1.node[21].wlan[0].mac 	rcvdPkFromHL:count 	8300
attr interpolationmode  none
attr source  packetReceivedFromUpper
attr title  "packets received from higher layer, count"
scalar scenarioPRJP1.node[21].wlan[0].mac 	rcvdPkFromHL:sum(packetBytes) 	1054464
attr interpolationmode  none
attr source  packetReceivedFromUpper
attr title  "packets received from higher layer, sum(packetBytes)"
scalar scenarioPRJP1.node[21].wlan[0].mac 	passedUpPk:count 	20301
attr interpolationmode  none
attr source  packetSentToUpper
attr title  "packets passed to higher layer, count"
scalar scenarioPRJP1.node[21].wlan[0].mac 	passedUpPk:sum(packetBytes) 	2018612
attr interpolationmode  none
attr source  packetSentToUpper
attr title  "packets passed to higher layer, sum(packetBytes)"
statistic scenarioPRJP1.node[21].wlan[0].radio 	radioChannel:histogram
field count 1
field mean 3
field stddev nan
field sum 3
field sqrsum 9
field min 3
field max 3
attr interpolationmode  sample-hold
attr source  radioChannelChanged
attr title  "Radio channel, histogram"
bin	-INF	0
bin	2	0
bin	3	1
bin	4	0
scalar scenarioPRJP1.node[21].wlan[0].radio 	transmissionState:count 	52756
attr interpolationmode  sample-hold
attr source  transmissionStateChanged
attr title  "Radio transmission state, count"
scalar scenarioPRJP1.node[21].wlan[0].radio 	receptionState:count 	119469
attr interpolationmode  sample-hold
attr source  receptionStateChanged
attr title  "Radio reception state, count"
scalar scenarioPRJP1.node[21].wlan[0].radio 	radioMode:count 	26380
attr interpolationmode  sample-hold
attr source  radioModeChanged
attr title  "Radio mode, count"
statistic scenarioPRJP1.node[21].wlan[0].radio 	symbolErrorRate:histogram
field count 0
field mean nan
field stddev nan
field sum 0
field sqrsum 0
field min nan
field max nan
attr source  symbolErrorRate
attr title  "Symbol error rate, histogram"
bin	-INF	0
bin	-0.5	0
bin	-0.46666666666667	0
bin	-0.43333333333333	0
bin	-0.4	0
bin	-0.36666666666667	0
bin	-0.33333333333333	0
bin	-0.3	0
bin	-0.26666666666667	0
bin	-0.23333333333333	0
bin	-0.2	0
bin	-0.16666666666667	0
bin	-0.13333333333333	0
bin	-0.1	0
bin	-0.066666666666667	0
bin	-0.033333333333333	0
bin	0	0
bin	0.033333333333333	0
bin	0.066666666666667	0
bin	0.1	0
bin	0.13333333333333	0
bin	0.16666666666667	0
bin	0.2	0
bin	0.23333333333333	0
bin	0.26666666666667	0
bin	0.3	0
bin	0.33333333333333	0
bin	0.36666666666667	0
bin	0.4	0
bin	0.43333333333333	0
bin	0.46666666666667	0
bin	0.5	0
statistic scenarioPRJP1.node[21].wlan[0].radio 	bitErrorRate:histogram
field count 0
field mean nan
field stddev nan
field sum 0
field sqrsum 0
field min nan
field max nan
attr source  bitErrorRate
attr title  "Bit error rate, histogram"
bin	-INF	0
bin	-0.5	0
bin	-0.46666666666667	0
bin	-0.43333333333333	0
bin	-0.4	0
bin	-0.36666666666667	0
bin	-0.33333333333333	0
bin	-0.3	0
bin	-0.26666666666667	0
bin	-0.23333333333333	0
bin	-0.2	0
bin	-0.16666666666667	0
bin	-0.13333333333333	0
bin	-0.1	0
bin	-0.066666666666667	0
bin	-0.033333333333333	0
bin	0	0
bin	0.033333333333333	0
bin	0.066666666666667	0
bin	0.1	0
bin	0.13333333333333	0
bin	0.16666666666667	0
bin	0.2	0
bin	0.23333333333333	0
bin	0.26666666666667	0
bin	0.3	0
bin	0.33333333333333	0
bin	0.36666666666667	0
bin	0.4	0
bin	0.43333333333333	0
bin	0.46666666666667	0
bin	0.5	0
statistic scenarioPRJP1.node[21].wlan[0].radio 	packetErrorRate:histogram
field count 46435
field mean 0.047876509058424
field stddev 0.20609712957712
field sum 2223.1456981279
field sqrsum 2078.7682845112
field min 0
field max 1
attr source  packetErrorRate
attr title  "Packet error rate, histogram"
bin	-INF	0
bin	-0.43573102963002	0
bin	-0.37763355901269	0
bin	-0.31953608839535	0
bin	-0.26143861777801	0
bin	-0.20334114716068	0
bin	-0.14524367654334	0
bin	-0.087146205926005	0
bin	-0.029048735308668	43518
bin	0.029048735308668	291
bin	0.087146205926005	140
bin	0.14524367654334	103
bin	0.20334114716068	64
bin	0.26143861777801	37
bin	0.31953608839535	37
bin	0.37763355901269	42
bin	0.43573102963002	45
bin	0.49382850024736	29
bin	0.5519259708647	28
bin	0.61002344148203	25
bin	0.66812091209937	34
bin	0.72621838271671	26
bin	0.78431585333404	28
bin	0.84241332395138	42
bin	0.90051079456872	51
bin	0.95860826518605	1895
bin	1.0167057358034	0
bin	1.0748032064207	0
bin	1.1329006770381	0
bin	1.1909981476554	0
bin	1.2490956182727	0
bin	1.3071930888901	0
statistic scenarioPRJP1.node[21].wlan[0].radio 	minSNIR:histogram
field count 46435
field mean 24391.966507896
field stddev 114455.95379272
field sum 1132640964.7942
field sqrsum 6.3592041873998e+14
field min 0.00018246038940624
field max 4722800.9105904
attr source  minSNIR
attr title  "Min SNIR, histogram"
bin	-INF	0
bin	-145.70894750147	0
bin	-125.92754080257	0
bin	-106.14613410367	0
bin	-86.364727404764	0
bin	-66.583320705862	0
bin	-46.80191400696	0
bin	-27.020507308058	0
bin	-7.2391006091557	8397
bin	12.542306089746	3458
bin	32.323712788649	1648
bin	52.105119487551	1210
bin	71.886526186453	920
bin	91.667932885355	687
bin	111.44933958426	1087
bin	131.23074628316	2375
bin	151.01215298206	1424
bin	170.79355968096	1769
bin	190.57496637987	1640
bin	210.35637307877	1366
bin	230.13777977767	979
bin	249.91918647657	770
bin	269.70059317547	753
bin	289.48199987438	618
bin	309.26340657328	408
bin	329.04481327218	354
bin	348.82621997108	399
bin	368.60762666998	284
bin	388.38903336889	288
bin	408.17044006779	213
bin	427.95184676669	272
bin	447.73325346559	15116
scalar scenarioPRJP1.node[21].lo0.lo 	droppedPkBitError:count 	0
attr interpolationmode  none
attr source  dropPkBitError
attr title  "packets dropped/bit error, count"
scalar scenarioPRJP1.node[21].lo0.lo 	droppedPkBitError:sum(packetBytes) 	0
attr interpolationmode  none
attr source  dropPkBitError
attr title  "packets dropped/bit error, sum(packetBytes)"
scalar scenarioPRJP1.node[21].lo0.lo 	rcvdPkFromHL:count 	0
attr interpolationmode  none
attr source  packetReceivedFromUpper
attr title  "packets received from higher layer, count"
scalar scenarioPRJP1.node[21].lo0.lo 	rcvdPkFromHL:sum(packetBytes) 	0
attr interpolationmode  none
attr source  packetReceivedFromUpper
attr title  "packets received from higher layer, sum(packetBytes)"
scalar scenarioPRJP1.node[21].lo0.lo 	passedUpPk:count 	0
attr interpolationmode  none
attr source  packetSentToUpper
attr title  "packets passed to higher layer, count"
scalar scenarioPRJP1.node[21].lo0.lo 	passedUpPk:sum(packetBytes) 	0
attr interpolationmode  none
attr source  packetSentToUpper
attr title  "packets passed to higher layer, sum(packetBytes)"
scalar scenarioPRJP1.node[1].app 	"Total sent" 	2622
scalar scenarioPRJP1.node[1].app 	"Total received" 	212
scalar scenarioPRJP1.node[1].app 	"Total deleted" 	143
scalar scenarioPRJP1.node[1].app 	dropPk:count 	143
attr interpolationmode  none
attr source  dropPk
attr title  "packets dropped, count"
scalar scenarioPRJP1.node[1].app 	dropPk:sum(packetBytes) 	73216
attr interpolationmode  none
attr source  dropPk
attr title  "packets dropped, sum(packetBytes)"
scalar scenarioPRJP1.node[1].app 	outOfOrderPk:count 	70
attr interpolationmode  none
attr source  outOfOrderPk
attr title  "packets received out of order, count"
scalar scenarioPRJP1.node[1].app 	outOfOrderPk:sum(packetBytes) 	35840
attr interpolationmode  none
attr source  outOfOrderPk
attr title  "packets received out of order, sum(packetBytes)"
scalar scenarioPRJP1.node[1].app 	rcvdPk:count 	212
attr interpolationmode  none
attr source  rcvdPk
attr title  "packets received, count"
scalar scenarioPRJP1.node[1].app 	rcvdPk:sum(packetBytes) 	108544
attr interpolationmode  none
attr source  rcvdPk
attr title  "packets received, sum(packetBytes)"
statistic scenarioPRJP1.node[1].app 	endToEndDelay:histogram
field count 212
field mean 2.1132580256416
field stddev 4.7864129364779
field sum 448.01070143602
field sqrsum 5780.7192068628
field min 0.000945064269
field max 19.232738387134
attr interpolationmode  none
attr source  messageAge(rcvdPk)
attr title  "delay, histogram"
attr unit  s
bin	-INF	0
bin	-9.6149513853695	0
bin	-8.3328318399249	0
bin	-7.0507122944803	0
bin	-5.7685927490357	0
bin	-4.4864732035911	0
bin	-3.2043536581465	0
bin	-1.9222341127019	0
bin	-0.6401145672573	162
bin	0.6420049781873	10
bin	1.9241245236319	3
bin	3.2062440690765	2
bin	4.4883636145211	5
bin	5.7704831599657	2
bin	7.0526027054103	1
bin	8.3347222508549	2
bin	9.6168417962995	6
bin	10.898961341744	2
bin	12.181080887189	2
bin	13.463200432633	3
bin	14.745319978078	3
bin	16.027439523522	4
bin	17.309559068967	3
bin	18.591678614412	2
bin	19.873798159856	0
bin	21.155917705301	0
bin	22.438037250745	0
bin	23.72015679619	0
bin	25.002276341635	0
bin	26.284395887079	0
bin	27.566515432524	0
bin	28.848634977968	0
scalar scenarioPRJP1.node[1].app 	sentPk:count 	2622
attr interpolationmode  none
attr source  sentPk
attr title  "packets sent, count"
scalar scenarioPRJP1.node[1].app 	sentPk:sum(packetBytes) 	1342464
attr interpolationmode  none
attr source  sentPk
attr title  "packets sent, sum(packetBytes)"
scalar scenarioPRJP1.node[1].udp 	droppedPkBadChecksum:count 	0
attr interpolationmode  none
attr title  "packets dropped (checksum error), count"
scalar scenarioPRJP1.node[1].udp 	droppedPkWrongPort:count 	0
attr interpolationmode  none
attr title  "packets dropped (wrong port), count"
scalar scenarioPRJP1.node[1].udp 	passedUpPk:count 	425
attr interpolationmode  none
attr title  "packets passed up, count"
scalar scenarioPRJP1.node[1].udp 	rcvdPk:count 	425
attr interpolationmode  none
attr source  rcvdPk
attr title  "packets received, count"
scalar scenarioPRJP1.node[1].udp 	rcvdPk:sum(packetBytes) 	221000
attr interpolationmode  none
attr source  rcvdPk
attr title  "packets received, sum(packetBytes)"
scalar scenarioPRJP1.node[1].udp 	sentPk:count 	2622
attr interpolationmode  none
attr source  sentPk
attr title  "packets sent, count"
scalar scenarioPRJP1.node[1].udp 	sentPk:sum(packetBytes) 	1363440
attr interpolationmode  none
attr source  sentPk
attr title  "packets sent, sum(packetBytes)"
scalar scenarioPRJP1.node[1].networkLayer.arp 	failedARPResolution:count 	13
attr title  "ARP failed resolutions, count"
scalar scenarioPRJP1.node[1].networkLayer.arp 	completedARPResolution:count 	178
attr title  "ARP completed resolutions, count"
scalar scenarioPRJP1.node[1].networkLayer.arp 	initiatedARPResolution:count 	58
attr title  "ARP initiated resolutions, count"
scalar scenarioPRJP1.node[1].networkLayer.arp 	sentReply:count 	30
attr title  "ARP replies sent, count"
scalar scenarioPRJP1.node[1].networkLayer.arp 	sentReq:count 	89
attr title  "ARP request sent, count"
scalar scenarioPRJP1.node[1].mobility 	startTime 	0.1
scalar scenarioPRJP1.node[1].mobility 	totalTime 	949.8
scalar scenarioPRJP1.node[1].mobility 	stopTime 	950
scalar scenarioPRJP1.node[1].mobility 	minSpeed 	2.475566170238e-13
scalar scenarioPRJP1.node[1].mobility 	maxSpeed 	19.657802353343
scalar scenarioPRJP1.node[1].mobility 	totalDistance 	8930.03357507
scalar scenarioPRJP1.node[1].mobility 	totalCO2Emission 	2625.7243474267
scalar scenarioPRJP1.node[1].wlan[0].mgmt 	dataQueueLen:max 	46
attr interpolationmode  sample-hold
attr title  "data queue length, max"
scalar scenarioPRJP1.node[1].wlan[0].mgmt 	dataQueueLen:timeavg 	0
attr interpolationmode  sample-hold
attr title  "data queue length, timeavg"
scalar scenarioPRJP1.node[1].wlan[0].mgmt 	dropPkByQueue:count 	0
attr interpolationmode  none
attr source  dropPkByQueue
attr title  "packets dropped by queue, count"
scalar scenarioPRJP1.node[1].wlan[0].mgmt 	dropPkByQueue:sum(packetBytes) 	0
attr interpolationmode  none
attr source  dropPkByQueue
attr title  "packets dropped by queue, sum(packetBytes)"
scalar scenarioPRJP1.node[1].wlan[0].mac 	"number of received packets" 	4007
scalar scenarioPRJP1.node[1].wlan[0].mac 	"number of collisions" 	3253
scalar scenarioPRJP1.node[1].wlan[0].mac 	"number of internal collisions" 	0
scalar scenarioPRJP1.node[1].wlan[0].mac 	"number of retry for AC 0" 	4326
scalar scenarioPRJP1.node[1].wlan[0].mac 	"number of retry for AC 1" 	0
scalar scenarioPRJP1.node[1].wlan[0].mac 	"number of retry for AC 2" 	0
scalar scenarioPRJP1.node[1].wlan[0].mac 	"number of retry for AC 3" 	0
scalar scenarioPRJP1.node[1].wlan[0].mac 	"sent and received bits" 	7625856
scalar scenarioPRJP1.node[1].wlan[0].mac 	"sent packet within AC 0" 	527
scalar scenarioPRJP1.node[1].wlan[0].mac 	"sent packet within AC 1" 	0
scalar scenarioPRJP1.node[1].wlan[0].mac 	"sent packet within AC 2" 	0
scalar scenarioPRJP1.node[1].wlan[0].mac 	"sent packet within AC 3" 	0
scalar scenarioPRJP1.node[1].wlan[0].mac 	"sent in TXOP " 	0
scalar scenarioPRJP1.node[1].wlan[0].mac 	"sentWithoutRetry AC 0" 	497
scalar scenarioPRJP1.node[1].wlan[0].mac 	"sentWithoutRetry AC 1" 	0
scalar scenarioPRJP1.node[1].wlan[0].mac 	"sentWithoutRetry AC 2" 	0
scalar scenarioPRJP1.node[1].wlan[0].mac 	"sentWithoutRetry AC 3" 	0
scalar scenarioPRJP1.node[1].wlan[0].mac 	"numGivenUp AC 0" 	713
scalar scenarioPRJP1.node[1].wlan[0].mac 	"numGivenUp AC 1" 	0
scalar scenarioPRJP1.node[1].wlan[0].mac 	"numGivenUp AC 2" 	0
scalar scenarioPRJP1.node[1].wlan[0].mac 	"numGivenUp AC 3" 	0
scalar scenarioPRJP1.node[1].wlan[0].mac 	"numDropped AC 0" 	0
scalar scenarioPRJP1.node[1].wlan[0].mac 	"numDropped AC 1" 	0
scalar scenarioPRJP1.node[1].wlan[0].mac 	"numDropped AC 2" 	0
scalar scenarioPRJP1.node[1].wlan[0].mac 	"numDropped AC 3" 	0
scalar scenarioPRJP1.node[1].wlan[0].mac 	rcvdPkFromLL:count 	58316
attr interpolationmode  none
attr source  packetReceivedFromLower
attr title  "packets received from lower layer, count"
scalar scenarioPRJP1.node[1].wlan[0].mac 	rcvdPkFromLL:sum(packetBytes) 	11917846
attr interpolationmode  none
attr source  packetReceivedFromLower
attr title  "packets received from lower layer, sum(packetBytes)"
scalar scenarioPRJP1.node[1].wlan[0].mac 	sentDownPk:count 	17581
attr interpolationmode  none
attr source  packetSentToLower
attr title  "packets sent to lower layer, count"
scalar scenarioPRJP1.node[1].wlan[0].mac 	sentDownPk:sum(packetBytes) 	3467250
attr interpolationmode  none
attr source  packetSentToLower
attr title  "packets sent to lower layer, sum(packetBytes)"
scalar scenarioPRJP1.node[1].wlan[0].mac 	rcvdPkFromHL:count 	9248
attr interpolationmode  none
attr source  packetReceivedFromUpper
attr title  "packets received from higher layer, count"
scalar scenarioPRJP1.node[1].wlan[0].mac 	rcvdPkFromHL:sum(packetBytes) 	1300484
attr interpolationmode  none
attr source  packetReceivedFromUpper
attr title  "packets received from higher layer, sum(packetBytes)"
scalar scenarioPRJP1.node[1].wlan[0].mac 	passedUpPk:count 	25265
attr interpolationmode  none
attr source  packetSentToUpper
attr title  "packets passed to higher layer, count"
scalar scenarioPRJP1.node[1].wlan[0].mac 	passedUpPk:sum(packetBytes) 	2686136
attr interpolationmode  none
attr source  packetSentToUpper
attr title  "packets passed to higher layer, sum(packetBytes)"
statistic scenarioPRJP1.node[1].wlan[0].radio 	radioChannel:histogram
field count 1
field mean 3
field stddev nan
field sum 3
field sqrsum 9
field min 3
field max 3
attr interpolationmode  sample-hold
attr source  radioChannelChanged
attr title  "Radio channel, histogram"
bin	-INF	0
bin	2	0
bin	3	1
bin	4	0
scalar scenarioPRJP1.node[1].wlan[0].radio 	transmissionState:count 	70324
attr interpolationmode  sample-hold
attr source  transmissionStateChanged
attr title  "Radio transmission state, count"
scalar scenarioPRJP1.node[1].wlan[0].radio 	receptionState:count 	152189
attr interpolationmode  sample-hold
attr source  receptionStateChanged
attr title  "Radio reception state, count"
scalar scenarioPRJP1.node[1].wlan[0].radio 	radioMode:count 	35164
attr interpolationmode  sample-hold
attr source  radioModeChanged
attr title  "Radio mode, count"
statistic scenarioPRJP1.node[1].wlan[0].radio 	symbolErrorRate:histogram
field count 0
field mean nan
field stddev nan
field sum 0
field sqrsum 0
field min nan
field max nan
attr source  symbolErrorRate
attr title  "Symbol error rate, histogram"
bin	-INF	0
bin	-0.5	0
bin	-0.46666666666667	0
bin	-0.43333333333333	0
bin	-0.4	0
bin	-0.36666666666667	0
bin	-0.33333333333333	0
bin	-0.3	0
bin	-0.26666666666667	0
bin	-0.23333333333333	0
bin	-0.2	0
bin	-0.16666666666667	0
bin	-0.13333333333333	0
bin	-0.1	0
bin	-0.066666666666667	0
bin	-0.033333333333333	0
bin	0	0
bin	0.033333333333333	0
bin	0.066666666666667	0
bin	0.1	0
bin	0.13333333333333	0
bin	0.16666666666667	0
bin	0.2	0
bin	0.23333333333333	0
bin	0.26666666666667	0
bin	0.3	0
bin	0.33333333333333	0
bin	0.36666666666667	0
bin	0.4	0
bin	0.43333333333333	0
bin	0.46666666666667	0
bin	0.5	0
statistic scenarioPRJP1.node[1].wlan[0].radio 	bitErrorRate:histogram
field count 0
field mean nan
field stddev nan
field sum 0
field sqrsum 0
field min nan
field max nan
attr source  bitErrorRate
attr title  "Bit error rate, histogram"
bin	-INF	0
bin	-0.5	0
bin	-0.46666666666667	0
bin	-0.43333333333333	0
bin	-0.4	0
bin	-0.36666666666667	0
bin	-0.33333333333333	0
bin	-0.3	0
bin	-0.26666666666667	0
bin	-0.23333333333333	0
bin	-0.2	0
bin	-0.16666666666667	0
bin	-0.13333333333333	0
bin	-0.1	0
bin	-0.066666666666667	0
bin	-0.033333333333333	0
bin	0	0
bin	0.033333333333333	0
bin	0.066666666666667	0
bin	0.1	0
bin	0.13333333333333	0
bin	0.16666666666667	0
bin	0.2	0
bin	0.23333333333333	0
bin	0.26666666666667	0
bin	0.3	0
bin	0.33333333333333	0
bin	0.36666666666667	0
bin	0.4	0
bin	0.43333333333333	0
bin	0.46666666666667	0
bin	0.5	0
statistic scenarioPRJP1.node[1].wlan[0].radio 	packetErrorRate:histogram
field count 58316
field mean 0.048064370968463
field stddev 0.20832635019338
field sum 2802.9218573969
field sqrsum 2665.5839891516
field min 0
field max 1
attr source  packetErrorRate
attr title  "Packet error rate, histogram"
bin	-INF	0
bin	-0.5	0
bin	-0.43333333333333	0
bin	-0.36666666666667	0
bin	-0.3	0
bin	-0.23333333333333	0
bin	-0.16666666666667	0
bin	-0.1	0
bin	-0.033333333333333	54881
bin	0.033333333333333	279
bin	0.1	161
bin	0.16666666666667	78
bin	0.23333333333333	67
bin	0.3	45
bin	0.36666666666667	30
bin	0.43333333333333	35
bin	0.5	27
bin	0.56666666666667	33
bin	0.63333333333333	25
bin	0.7	27
bin	0.76666666666667	43
bin	0.83333333333333	48
bin	0.9	72
bin	0.96666666666667	2465
bin	1.0333333333333	0
bin	1.1	0
bin	1.1666666666667	0
bin	1.2333333333333	0
bin	1.3	0
bin	1.3666666666667	0
bin	1.4333333333333	0
bin	1.5	0
statistic scenarioPRJP1.node[1].wlan[0].radio 	minSNIR:histogram
field count 58316
field mean 9845.2575864479
field stddev 54285.931214629
field sum 574136041.4113
field sqrsum 1.7750462536531e+14
field min 0.00071113741627085
field max 753239.7192161
attr source  minSNIR
attr title  "Min SNIR, histogram"
bin	-INF	0
bin	-83533.631070832	0
bin	-72395.578661486	0
bin	-61257.52625214	0
bin	-50119.473842795	0
bin	-38981.421433449	0
bin	-27843.369024103	0
bin	-16705.316614758	0
bin	-5567.2642054121	50739
bin	5570.7882039335	2371
bin	16708.840613279	1842
bin	27846.893022625	651
bin	38984.94543197	393
bin	50122.997841316	266
bin	61261.050250662	332
bin	72399.102660007	181
bin	83537.155069353	81
bin	94675.207478699	56
bin	105813.25988804	127
bin	116951.31229739	111
bin	128089.36470674	58
bin	139227.41711608	63
bin	150365.46952543	23
bin	161503.52193477	56
bin	172641.57434412	536
bin	183779.62675346	26
bin	194917.67916281	1
bin	206055.73157215	13
bin	217193.7839815	2
bin	228331.83639085	6
bin	239469.88880019	8
bin	250607.94120954	374
scalar scenarioPRJP1.node[1].lo0.lo 	droppedPkBitError:count 	0
attr interpolationmode  none
attr source  dropPkBitError
attr title  "packets dropped/bit error, count"
scalar scenarioPRJP1.node[1].lo0.lo 	droppedPkBitError:sum(packetBytes) 	0
attr interpolationmode  none
attr source  dropPkBitError
attr title  "packets dropped/bit error, sum(packetBytes)"
scalar scenarioPRJP1.node[1].lo0.lo 	rcvdPkFromHL:count 	0
attr interpolationmode  none
attr source  packetReceivedFromUpper
attr title  "packets received from higher layer, count"
scalar scenarioPRJP1.node[1].lo0.lo 	rcvdPkFromHL:sum(packetBytes) 	0
attr interpolationmode  none
attr source  packetReceivedFromUpper
attr title  "packets received from higher layer, sum(packetBytes)"
scalar scenarioPRJP1.node[1].lo0.lo 	passedUpPk:count 	0
attr interpolationmode  none
attr source  packetSentToUpper
attr title  "packets passed to higher layer, count"
scalar scenarioPRJP1.node[1].lo0.lo 	passedUpPk:sum(packetBytes) 	0
attr interpolationmode  none
attr source  packetSentToUpper
attr title  "packets passed to higher layer, sum(packetBytes)"
scalar scenarioPRJP1.node[20].app 	"Total sent" 	2601
scalar scenarioPRJP1.node[20].app 	"Total received" 	153
scalar scenarioPRJP1.node[20].app 	"Total deleted" 	131
scalar scenarioPRJP1.node[20].app 	dropPk:count 	131
attr interpolationmode  none
attr source  dropPk
attr title  "packets dropped, count"
scalar scenarioPRJP1.node[20].app 	dropPk:sum(packetBytes) 	67072
attr interpolationmode  none
attr source  dropPk
attr title  "packets dropped, sum(packetBytes)"
scalar scenarioPRJP1.node[20].app 	outOfOrderPk:count 	80
attr interpolationmode  none
attr source  outOfOrderPk
attr title  "packets received out of order, count"
scalar scenarioPRJP1.node[20].app 	outOfOrderPk:sum(packetBytes) 	40960
attr interpolationmode  none
attr source  outOfOrderPk
attr title  "packets received out of order, sum(packetBytes)"
scalar scenarioPRJP1.node[20].app 	rcvdPk:count 	153
attr interpolationmode  none
attr source  rcvdPk
attr title  "packets received, count"
scalar scenarioPRJP1.node[20].app 	rcvdPk:sum(packetBytes) 	78336
attr interpolationmode  none
attr source  rcvdPk
attr title  "packets received, sum(packetBytes)"
statistic scenarioPRJP1.node[20].app 	endToEndDelay:histogram
field count 153
field mean 1.781146795891
field stddev 4.6395276314645
field sum 272.51545977132
field sqrsum 3757.2229677571
field min 0.000945163649
field max 19.982667715696
attr interpolationmode  none
attr source  messageAge(rcvdPk)
attr title  "delay, histogram"
attr unit  s
bin	-INF	0
bin	-9.9899161123745	0
bin	-8.6578012755714	0
bin	-7.3256864387682	0
bin	-5.9935716019651	0
bin	-4.661456765162	0
bin	-3.3293419283588	0
bin	-1.9972270915557	0
bin	-0.66511225475257	125
bin	0.66700258205057	4
bin	1.9991174188537	2
bin	3.3312322556568	4
bin	4.66334709246	1
bin	5.9954619292631	1
bin	7.3275767660662	1
bin	8.6596916028694	3
bin	9.9918064396725	1
bin	11.323921276476	0
bin	12.656036113279	3
bin	13.988150950082	0
bin	15.320265786885	1
bin	16.652380623688	3
bin	17.984495460491	3
bin	19.316610297294	1
bin	20.648725134098	0
bin	21.980839970901	0
bin	23.312954807704	0
bin	24.645069644507	0
bin	25.97718448131	0
bin	27.309299318113	0
bin	28.641414154916	0
bin	29.973528991719	0
scalar scenarioPRJP1.node[20].app 	sentPk:count 	2601
attr interpolationmode  none
attr source  sentPk
attr title  "packets sent, count"
scalar scenarioPRJP1.node[20].app 	sentPk:sum(packetBytes) 	1331712
attr interpolationmode  none
attr source  sentPk
attr title  "packets sent, sum(packetBytes)"
scalar scenarioPRJP1.node[20].udp 	droppedPkBadChecksum:count 	0
attr interpolationmode  none
attr title  "packets dropped (checksum error), count"
scalar scenarioPRJP1.node[20].udp 	droppedPkWrongPort:count 	0
attr interpolationmode  none
attr title  "packets dropped (wrong port), count"
scalar scenarioPRJP1.node[20].udp 	passedUpPk:count 	364
attr interpolationmode  none
attr title  "packets passed up, count"
scalar scenarioPRJP1.node[20].udp 	rcvdPk:count 	364
attr interpolationmode  none
attr source  rcvdPk
attr title  "packets received, count"
scalar scenarioPRJP1.node[20].udp 	rcvdPk:sum(packetBytes) 	189280
attr interpolationmode  none
attr source  rcvdPk
attr title  "packets received, sum(packetBytes)"
scalar scenarioPRJP1.node[20].udp 	sentPk:count 	2601
attr interpolationmode  none
attr source  sentPk
attr title  "packets sent, count"
scalar scenarioPRJP1.node[20].udp 	sentPk:sum(packetBytes) 	1352520
attr interpolationmode  none
attr source  sentPk
attr title  "packets sent, sum(packetBytes)"
scalar scenarioPRJP1.node[20].networkLayer.arp 	failedARPResolution:count 	6
attr title  "ARP failed resolutions, count"
scalar scenarioPRJP1.node[20].networkLayer.arp 	completedARPResolution:count 	131
attr title  "ARP completed resolutions, count"
scalar scenarioPRJP1.node[20].networkLayer.arp 	initiatedARPResolution:count 	39
attr title  "ARP initiated resolutions, count"
scalar scenarioPRJP1.node[20].networkLayer.arp 	sentReply:count 	24
attr title  "ARP replies sent, count"
scalar scenarioPRJP1.node[20].networkLayer.arp 	sentReq:count 	54
attr title  "ARP request sent, count"
scalar scenarioPRJP1.node[20].mobility 	startTime 	2.4
scalar scenarioPRJP1.node[20].mobility 	totalTime 	947.5
scalar scenarioPRJP1.node[20].mobility 	stopTime 	950
scalar scenarioPRJP1.node[20].mobility 	minSpeed 	2.47558403727e-13
scalar scenarioPRJP1.node[20].mobility 	maxSpeed 	17.804154876616
scalar scenarioPRJP1.node[20].mobility 	totalDistance 	10432.187362703
scalar scenarioPRJP1.node[20].mobility 	totalCO2Emission 	2466.3860864304
scalar scenarioPRJP1.node[20].wlan[0].mgmt 	dataQueueLen:max 	22
attr interpolationmode  sample-hold
attr title  "data queue length, max"
scalar scenarioPRJP1.node[20].wlan[0].mgmt 	dataQueueLen:timeavg 	0
attr interpolationmode  sample-hold
attr title  "data queue length, timeavg"
scalar scenarioPRJP1.node[20].wlan[0].mgmt 	dropPkByQueue:count 	0
attr interpolationmode  none
attr source  dropPkByQueue
attr title  "packets dropped by queue, count"
scalar scenarioPRJP1.node[20].wlan[0].mgmt 	dropPkByQueue:sum(packetBytes) 	0
attr interpolationmode  none
attr source  dropPkByQueue
attr title  "packets dropped by queue, sum(packetBytes)"
scalar scenarioPRJP1.node[20].wlan[0].mac 	"number of received packets" 	2342
scalar scenarioPRJP1.node[20].wlan[0].mac 	"number of collisions" 	2477
scalar scenarioPRJP1.node[20].wlan[0].mac 	"number of internal collisions" 	0
scalar scenarioPRJP1.node[20].wlan[0].mac 	"number of retry for AC 0" 	3379
scalar scenarioPRJP1.node[20].wlan[0].mac 	"number of retry for AC 1" 	0
scalar scenarioPRJP1.node[20].wlan[0].mac 	"number of retry for AC 2" 	0
scalar scenarioPRJP1.node[20].wlan[0].mac 	"number of retry for AC 3" 	0
scalar scenarioPRJP1.node[20].wlan[0].mac 	"sent and received bits" 	5412512
scalar scenarioPRJP1.node[20].wlan[0].mac 	"sent packet within AC 0" 	262
scalar scenarioPRJP1.node[20].wlan[0].mac 	"sent packet within AC 1" 	0
scalar scenarioPRJP1.node[20].wlan[0].mac 	"sent packet within AC 2" 	0
scalar scenarioPRJP1.node[20].wlan[0].mac 	"sent packet within AC 3" 	0
scalar scenarioPRJP1.node[20].wlan[0].mac 	"sent in TXOP " 	0
scalar scenarioPRJP1.node[20].wlan[0].mac 	"sentWithoutRetry AC 0" 	231
scalar scenarioPRJP1.node[20].wlan[0].mac 	"sentWithoutRetry AC 1" 	0
scalar scenarioPRJP1.node[20].wlan[0].mac 	"sentWithoutRetry AC 2" 	0
scalar scenarioPRJP1.node[20].wlan[0].mac 	"sentWithoutRetry AC 3" 	0
scalar scenarioPRJP1.node[20].wlan[0].mac 	"numGivenUp AC 0" 	552
scalar scenarioPRJP1.node[20].wlan[0].mac 	"numGivenUp AC 1" 	0
scalar scenarioPRJP1.node[20].wlan[0].mac 	"numGivenUp AC 2" 	0
scalar scenarioPRJP1.node[20].wlan[0].mac 	"numGivenUp AC 3" 	0
scalar scenarioPRJP1.node[20].wlan[0].mac 	"numDropped AC 0" 	0
scalar scenarioPRJP1.node[20].wlan[0].mac 	"numDropped AC 1" 	0
scalar scenarioPRJP1.node[20].wlan[0].mac 	"numDropped AC 2" 	0
scalar scenarioPRJP1.node[20].wlan[0].mac 	"numDropped AC 3" 	0
scalar scenarioPRJP1.node[20].wlan[0].mac 	rcvdPkFromLL:count 	36423
attr interpolationmode  none
attr source  packetReceivedFromLower
attr title  "packets received from lower layer, count"
scalar scenarioPRJP1.node[20].wlan[0].mac 	rcvdPkFromLL:sum(packetBytes) 	7249174
attr interpolationmode  none
attr source  packetReceivedFromLower
attr title  "packets received from lower layer, sum(packetBytes)"
scalar scenarioPRJP1.node[20].wlan[0].mac 	sentDownPk:count 	12791
attr interpolationmode  none
attr source  packetSentToLower
attr title  "packets sent to lower layer, count"
scalar scenarioPRJP1.node[20].wlan[0].mac 	sentDownPk:sum(packetBytes) 	2660476
attr interpolationmode  none
attr source  packetSentToLower
attr title  "packets sent to lower layer, sum(packetBytes)"
scalar scenarioPRJP1.node[20].wlan[0].mac 	rcvdPkFromHL:count 	7070
attr interpolationmode  none
attr source  packetReceivedFromUpper
attr title  "packets received from higher layer, count"
scalar scenarioPRJP1.node[20].wlan[0].mac 	rcvdPkFromHL:sum(packetBytes) 	950348
attr interpolationmode  none
attr source  packetReceivedFromUpper
attr title  "packets received from higher layer, sum(packetBytes)"
scalar scenarioPRJP1.node[20].wlan[0].mac 	passedUpPk:count 	16011
attr interpolationmode  none
attr source  packetSentToUpper
attr title  "packets passed to higher layer, count"
scalar scenarioPRJP1.node[20].wlan[0].mac 	passedUpPk:sum(packetBytes) 	1736188
attr interpolationmode  none
attr source  packetSentToUpper
attr title  "packets passed to higher layer, sum(packetBytes)"
statistic scenarioPRJP1.node[20].wlan[0].radio 	radioChannel:histogram
field count 1
field mean 3
field stddev nan
field sum 3
field sqrsum 9
field min 3
field max 3
attr interpolationmode  sample-hold
attr source  radioChannelChanged
attr title  "Radio channel, histogram"
bin	-INF	0
bin	2	0
bin	3	1
bin	4	0
scalar scenarioPRJP1.node[20].wlan[0].radio 	transmissionState:count 	51164
attr interpolationmode  sample-hold
attr source  transmissionStateChanged
attr title  "Radio transmission state, count"
scalar scenarioPRJP1.node[20].wlan[0].radio 	receptionState:count 	98651
attr interpolationmode  sample-hold
attr source  receptionStateChanged
attr title  "Radio reception state, count"
scalar scenarioPRJP1.node[20].wlan[0].radio 	radioMode:count 	25584
attr interpolationmode  sample-hold
attr source  radioModeChanged
attr title  "Radio mode, count"
statistic scenarioPRJP1.node[20].wlan[0].radio 	symbolErrorRate:histogram
field count 0
field mean nan
field stddev nan
field sum 0
field sqrsum 0
field min nan
field max nan
attr source  symbolErrorRate
attr title  "Symbol error rate, histogram"
bin	-INF	0
bin	-0.5	0
bin	-0.46666666666667	0
bin	-0.43333333333333	0
bin	-0.4	0
bin	-0.36666666666667	0
bin	-0.33333333333333	0
bin	-0.3	0
bin	-0.26666666666667	0
bin	-0.23333333333333	0
bin	-0.2	0
bin	-0.16666666666667	0
bin	-0.13333333333333	0
bin	-0.1	0
bin	-0.066666666666667	0
bin	-0.033333333333333	0
bin	0	0
bin	0.033333333333333	0
bin	0.066666666666667	0
bin	0.1	0
bin	0.13333333333333	0
bin	0.16666666666667	0
bin	0.2	0
bin	0.23333333333333	0
bin	0.26666666666667	0
bin	0.3	0
bin	0.33333333333333	0
bin	0.36666666666667	0
bin	0.4	0
bin	0.43333333333333	0
bin	0.46666666666667	0
bin	0.5	0
statistic scenarioPRJP1.node[20].wlan[0].radio 	bitErrorRate:histogram
field count 0
field mean nan
field stddev nan
field sum 0
field sqrsum 0
field min nan
field max nan
attr source  bitErrorRate
attr title  "Bit error rate, histogram"
bin	-INF	0
bin	-0.5	0
bin	-0.46666666666667	0
bin	-0.43333333333333	0
bin	-0.4	0
bin	-0.36666666666667	0
bin	-0.33333333333333	0
bin	-0.3	0
bin	-0.26666666666667	0
bin	-0.23333333333333	0
bin	-0.2	0
bin	-0.16666666666667	0
bin	-0.13333333333333	0
bin	-0.1	0
bin	-0.066666666666667	0
bin	-0.033333333333333	0
bin	0	0
bin	0.033333333333333	0
bin	0.066666666666667	0
bin	0.1	0
bin	0.13333333333333	0
bin	0.16666666666667	0
bin	0.2	0
bin	0.23333333333333	0
bin	0.26666666666667	0
bin	0.3	0
bin	0.33333333333333	0
bin	0.36666666666667	0
bin	0.4	0
bin	0.43333333333333	0
bin	0.46666666666667	0
bin	0.5	0
statistic scenarioPRJP1.node[20].wlan[0].radio 	packetErrorRate:histogram
field count 36423
field mean 0.060608238397338
field stddev 0.23237145289389
field sum 2207.5338671463
field sqrsum 2100.4549748855
field min 0
field max 1
attr source  packetErrorRate
attr title  "Packet error rate, histogram"
bin	-INF	0
bin	-0.5	0
bin	-0.43333333333333	0
bin	-0.36666666666667	0
bin	-0.3	0
bin	-0.23333333333333	0
bin	-0.16666666666667	0
bin	-0.1	0
bin	-0.033333333333333	33754
bin	0.033333333333333	205
bin	0.1	95
bin	0.16666666666667	49
bin	0.23333333333333	54
bin	0.3	33
bin	0.36666666666667	38
bin	0.43333333333333	25
bin	0.5	33
bin	0.56666666666667	18
bin	0.63333333333333	31
bin	0.7	31
bin	0.76666666666667	23
bin	0.83333333333333	44
bin	0.9	50
bin	0.96666666666667	1940
bin	1.0333333333333	0
bin	1.1	0
bin	1.1666666666667	0
bin	1.2333333333333	0
bin	1.3	0
bin	1.3666666666667	0
bin	1.4333333333333	0
bin	1.5	0
statistic scenarioPRJP1.node[20].wlan[0].radio 	minSNIR:histogram
field count 36423
field mean 9903.910535621
field stddev 67819.037966389
field sum 360730133.43893
field sqrsum 1.710927838001e+14
field min 0.00071936336827999
field max 1056355.6100216
attr source  minSNIR
attr title  "Min SNIR, histogram"
bin	-INF	0
bin	-83018.157495532	0
bin	-71949.057018654	0
bin	-60879.956541777	0
bin	-49810.8560649	0
bin	-38741.755588022	0
bin	-27672.655111145	0
bin	-16603.554634268	0
bin	-5534.4541573906	33177
bin	5534.6463194867	1329
bin	16603.746796364	694
bin	27672.847273241	154
bin	38741.947750119	82
bin	49811.048226996	49
bin	60880.148703873	101
bin	71949.249180751	41
bin	83018.349657628	32
bin	94087.450134505	19
bin	105156.55061138	11
bin	116225.65108826	14
bin	127294.75156514	18
bin	138363.85204201	7
bin	149432.95251889	15
bin	160502.05299577	6
bin	171571.15347265	329
bin	182640.25394952	6
bin	193709.3544264	8
bin	204778.45490328	2
bin	215847.55538016	4
bin	226916.65585703	3
bin	237985.75633391	3
bin	249054.85681079	319
scalar scenarioPRJP1.node[20].lo0.lo 	droppedPkBitError:count 	0
attr interpolationmode  none
attr source  dropPkBitError
attr title  "packets dropped/bit error, count"
scalar scenarioPRJP1.node[20].lo0.lo 	droppedPkBitError:sum(packetBytes) 	0
attr interpolationmode  none
attr source  dropPkBitError
attr title  "packets dropped/bit error, sum(packetBytes)"
scalar scenarioPRJP1.node[20].lo0.lo 	rcvdPkFromHL:count 	0
attr interpolationmode  none
attr source  packetReceivedFromUpper
attr title  "packets received from higher layer, count"
scalar scenarioPRJP1.node[20].lo0.lo 	rcvdPkFromHL:sum(packetBytes) 	0
attr interpolationmode  none
attr source  packetReceivedFromUpper
attr title  "packets received from higher layer, sum(packetBytes)"
scalar scenarioPRJP1.node[20].lo0.lo 	passedUpPk:count 	0
attr interpolationmode  none
attr source  packetSentToUpper
attr title  "packets passed to higher layer, count"
scalar scenarioPRJP1.node[20].lo0.lo 	passedUpPk:sum(packetBytes) 	0
attr interpolationmode  none
attr source  packetSentToUpper
attr title  "packets passed to higher layer, sum(packetBytes)"
scalar scenarioPRJP1.node[2].app 	"Total sent" 	2607
scalar scenarioPRJP1.node[2].app 	"Total received" 	201
scalar scenarioPRJP1.node[2].app 	"Total deleted" 	109
scalar scenarioPRJP1.node[2].app 	dropPk:count 	109
attr interpolationmode  none
attr source  dropPk
attr title  "packets dropped, count"
scalar scenarioPRJP1.node[2].app 	dropPk:sum(packetBytes) 	55808
attr interpolationmode  none
attr source  dropPk
attr title  "packets dropped, sum(packetBytes)"
scalar scenarioPRJP1.node[2].app 	outOfOrderPk:count 	101
attr interpolationmode  none
attr source  outOfOrderPk
attr title  "packets received out of order, count"
scalar scenarioPRJP1.node[2].app 	outOfOrderPk:sum(packetBytes) 	51712
attr interpolationmode  none
attr source  outOfOrderPk
attr title  "packets received out of order, sum(packetBytes)"
scalar scenarioPRJP1.node[2].app 	rcvdPk:count 	201
attr interpolationmode  none
attr source  rcvdPk
attr title  "packets received, count"
scalar scenarioPRJP1.node[2].app 	rcvdPk:sum(packetBytes) 	102912
attr interpolationmode  none
attr source  rcvdPk
attr title  "packets received, sum(packetBytes)"
statistic scenarioPRJP1.node[2].app 	endToEndDelay:histogram
field count 201
field mean 1.4173576885255
field stddev 4.155299867259
field sum 284.88889539363
field sqrsum 3857.0928636303
field min 0.000945031544
field max 19.647258580045
attr interpolationmode  none
attr source  messageAge(rcvdPk)
attr title  "delay, histogram"
attr unit  s
bin	-INF	0
bin	-7.85380719812	0
bin	-6.8065069008315	0
bin	-5.7592066035429	0
bin	-4.7119063062544	0
bin	-3.6646060089659	0
bin	-2.6173057116773	0
bin	-1.5700054143888	0
bin	-0.52270511710027	167
bin	0.52459518018827	9
bin	1.5718954774768	2
bin	2.6191957747653	3
bin	3.6664960720539	1
bin	4.7137963693424	0
bin	5.7610966666309	0
bin	6.8083969639195	0
bin	7.855697261208	4
bin	8.9029975584965	1
bin	9.9502978557851	2
bin	10.997598153074	0
bin	12.044898450362	3
bin	13.092198747651	1
bin	14.139499044939	0
bin	15.186799342228	2
bin	16.234099639516	1
bin	17.281399936805	1
bin	18.328700234093	3
bin	19.376000531382	1
bin	20.42330082867	0
bin	21.470601125959	0
bin	22.517901423247	0
bin	23.565201720536	0
scalar scenarioPRJP1.node[2].app 	sentPk:count 	2607
attr interpolationmode  none
attr source  sentPk
attr title  "packets sent, count"
scalar scenarioPRJP1.node[2].app 	sentPk:sum(packetBytes) 	1334784
attr interpolationmode  none
attr source  sentPk
attr title  "packets sent, sum(packetBytes)"
scalar scenarioPRJP1.node[2].udp 	droppedPkBadChecksum:count 	0
attr interpolationmode  none
attr title  "packets dropped (checksum error), count"
scalar scenarioPRJP1.node[2].udp 	droppedPkWrongPort:count 	0
attr interpolationmode  none
attr title  "packets dropped (wrong port), count"
scalar scenarioPRJP1.node[2].udp 	passedUpPk:count 	411
attr interpolationmode  none
attr title  "packets passed up, count"
scalar scenarioPRJP1.node[2].udp 	rcvdPk:count 	411
attr interpolationmode  none
attr source  rcvdPk
attr title  "packets received, count"
scalar scenarioPRJP1.node[2].udp 	rcvdPk:sum(packetBytes) 	213720
attr interpolationmode  none
attr source  rcvdPk
attr title  "packets received, sum(packetBytes)"
scalar scenarioPRJP1.node[2].udp 	sentPk:count 	2607
attr interpolationmode  none
attr source  sentPk
attr title  "packets sent, count"
scalar scenarioPRJP1.node[2].udp 	sentPk:sum(packetBytes) 	1355640
attr interpolationmode  none
attr source  sentPk
attr title  "packets sent, sum(packetBytes)"
scalar scenarioPRJP1.node[2].networkLayer.arp 	failedARPResolution:count 	6
attr title  "ARP failed resolutions, count"
scalar scenarioPRJP1.node[2].networkLayer.arp 	completedARPResolution:count 	182
attr title  "ARP completed resolutions, count"
scalar scenarioPRJP1.node[2].networkLayer.arp 	initiatedARPResolution:count 	38
attr title  "ARP initiated resolutions, count"
scalar scenarioPRJP1.node[2].networkLayer.arp 	sentReply:count 	31
attr title  "ARP replies sent, count"
scalar scenarioPRJP1.node[2].networkLayer.arp 	sentReq:count 	51
attr title  "ARP request sent, count"
scalar scenarioPRJP1.node[2].mobility 	startTime 	0.1
scalar scenarioPRJP1.node[2].mobility 	totalTime 	949.8
scalar scenarioPRJP1.node[2].mobility 	stopTime 	950
scalar scenarioPRJP1.node[2].mobility 	minSpeed 	2.4756830805188e-13
scalar scenarioPRJP1.node[2].mobility 	maxSpeed 	19.599742639356
scalar scenarioPRJP1.node[2].mobility 	totalDistance 	10722.497951602
scalar scenarioPRJP1.node[2].mobility 	totalCO2Emission 	2976.4759901973
scalar scenarioPRJP1.node[2].wlan[0].mgmt 	dataQueueLen:max 	32
attr interpolationmode  sample-hold
attr title  "data queue length, max"
scalar scenarioPRJP1.node[2].wlan[0].mgmt 	dataQueueLen:timeavg 	0
attr interpolationmode  sample-hold
attr title  "data queue length, timeavg"
scalar scenarioPRJP1.node[2].wlan[0].mgmt 	dropPkByQueue:count 	0
attr interpolationmode  none
attr source  dropPkByQueue
attr title  "packets dropped by queue, count"
scalar scenarioPRJP1.node[2].wlan[0].mgmt 	dropPkByQueue:sum(packetBytes) 	0
attr interpolationmode  none
attr source  dropPkByQueue
attr title  "packets dropped by queue, sum(packetBytes)"
scalar scenarioPRJP1.node[2].wlan[0].mac 	"number of received packets" 	4388
scalar scenarioPRJP1.node[2].wlan[0].mac 	"number of collisions" 	4325
scalar scenarioPRJP1.node[2].wlan[0].mac 	"number of internal collisions" 	0
scalar scenarioPRJP1.node[2].wlan[0].mac 	"number of retry for AC 0" 	4019
scalar scenarioPRJP1.node[2].wlan[0].mac 	"number of retry for AC 1" 	0
scalar scenarioPRJP1.node[2].wlan[0].mac 	"number of retry for AC 2" 	0
scalar scenarioPRJP1.node[2].wlan[0].mac 	"number of retry for AC 3" 	0
scalar scenarioPRJP1.node[2].wlan[0].mac 	"sent and received bits" 	8223712
scalar scenarioPRJP1.node[2].wlan[0].mac 	"sent packet within AC 0" 	1376
scalar scenarioPRJP1.node[2].wlan[0].mac 	"sent packet within AC 1" 	0
scalar scenarioPRJP1.node[2].wlan[0].mac 	"sent packet within AC 2" 	0
scalar scenarioPRJP1.node[2].wlan[0].mac 	"sent packet within AC 3" 	0
scalar scenarioPRJP1.node[2].wlan[0].mac 	"sent in TXOP " 	0
scalar scenarioPRJP1.node[2].wlan[0].mac 	"sentWithoutRetry AC 0" 	1335
scalar scenarioPRJP1.node[2].wlan[0].mac 	"sentWithoutRetry AC 1" 	0
scalar scenarioPRJP1.node[2].wlan[0].mac 	"sentWithoutRetry AC 2" 	0
scalar scenarioPRJP1.node[2].wlan[0].mac 	"sentWithoutRetry AC 3" 	0
scalar scenarioPRJP1.node[2].wlan[0].mac 	"numGivenUp AC 0" 	662
scalar scenarioPRJP1.node[2].wlan[0].mac 	"numGivenUp AC 1" 	0
scalar scenarioPRJP1.node[2].wlan[0].mac 	"numGivenUp AC 2" 	0
scalar scenarioPRJP1.node[2].wlan[0].mac 	"numGivenUp AC 3" 	0
scalar scenarioPRJP1.node[2].wlan[0].mac 	"numDropped AC 0" 	0
scalar scenarioPRJP1.node[2].wlan[0].mac 	"numDropped AC 1" 	0
scalar scenarioPRJP1.node[2].wlan[0].mac 	"numDropped AC 2" 	0
scalar scenarioPRJP1.node[2].wlan[0].mac 	"numDropped AC 3" 	0
scalar scenarioPRJP1.node[2].wlan[0].mac 	rcvdPkFromLL:count 	74437
attr interpolationmode  none
attr source  packetReceivedFromLower
attr title  "packets received from lower layer, count"
scalar scenarioPRJP1.node[2].wlan[0].mac 	rcvdPkFromLL:sum(packetBytes) 	14222928
attr interpolationmode  none
attr source  packetReceivedFromLower
attr title  "packets received from lower layer, sum(packetBytes)"
scalar scenarioPRJP1.node[2].wlan[0].mac 	sentDownPk:count 	18864
attr interpolationmode  none
attr source  packetSentToLower
attr title  "packets sent to lower layer, count"
scalar scenarioPRJP1.node[2].wlan[0].mac 	sentDownPk:sum(packetBytes) 	3043376
attr interpolationmode  none
attr source  packetSentToLower
attr title  "packets sent to lower layer, sum(packetBytes)"
scalar scenarioPRJP1.node[2].wlan[0].mac 	rcvdPkFromHL:count 	10457
attr interpolationmode  none
attr source  packetReceivedFromUpper
attr title  "packets received from higher layer, count"
scalar scenarioPRJP1.node[2].wlan[0].mac 	rcvdPkFromHL:sum(packetBytes) 	1305064
attr interpolationmode  none
attr source  packetReceivedFromUpper
attr title  "packets received from higher layer, sum(packetBytes)"
scalar scenarioPRJP1.node[2].wlan[0].mac 	passedUpPk:count 	31390
attr interpolationmode  none
attr source  packetSentToUpper
attr title  "packets passed to higher layer, count"
scalar scenarioPRJP1.node[2].wlan[0].mac 	passedUpPk:sum(packetBytes) 	3131660
attr interpolationmode  none
attr source  packetSentToUpper
attr title  "packets passed to higher layer, sum(packetBytes)"
statistic scenarioPRJP1.node[2].wlan[0].radio 	radioChannel:histogram
field count 1
field mean 3
field stddev nan
field sum 3
field sqrsum 9
field min 3
field max 3
attr interpolationmode  sample-hold
attr source  radioChannelChanged
attr title  "Radio channel, histogram"
bin	-INF	0
bin	2	0
bin	3	1
bin	4	0
scalar scenarioPRJP1.node[2].wlan[0].radio 	transmissionState:count 	75456
attr interpolationmode  sample-hold
attr source  transmissionStateChanged
attr title  "Radio transmission state, count"
scalar scenarioPRJP1.node[2].wlan[0].radio 	receptionState:count 	187023
attr interpolationmode  sample-hold
attr source  receptionStateChanged
attr title  "Radio reception state, count"
scalar scenarioPRJP1.node[2].wlan[0].radio 	radioMode:count 	37730
attr interpolationmode  sample-hold
attr source  radioModeChanged
attr title  "Radio mode, count"
statistic scenarioPRJP1.node[2].wlan[0].radio 	symbolErrorRate:histogram
field count 0
field mean nan
field stddev nan
field sum 0
field sqrsum 0
field min nan
field max nan
attr source  symbolErrorRate
attr title  "Symbol error rate, histogram"
bin	-INF	0
bin	-0.5	0
bin	-0.46666666666667	0
bin	-0.43333333333333	0
bin	-0.4	0
bin	-0.36666666666667	0
bin	-0.33333333333333	0
bin	-0.3	0
bin	-0.26666666666667	0
bin	-0.23333333333333	0
bin	-0.2	0
bin	-0.16666666666667	0
bin	-0.13333333333333	0
bin	-0.1	0
bin	-0.066666666666667	0
bin	-0.033333333333333	0
bin	0	0
bin	0.033333333333333	0
bin	0.066666666666667	0
bin	0.1	0
bin	0.13333333333333	0
bin	0.16666666666667	0
bin	0.2	0
bin	0.23333333333333	0
bin	0.26666666666667	0
bin	0.3	0
bin	0.33333333333333	0
bin	0.36666666666667	0
bin	0.4	0
bin	0.43333333333333	0
bin	0.46666666666667	0
bin	0.5	0
statistic scenarioPRJP1.node[2].wlan[0].radio 	bitErrorRate:histogram
field count 0
field mean nan
field stddev nan
field sum 0
field sqrsum 0
field min nan
field max nan
attr source  bitErrorRate
attr title  "Bit error rate, histogram"
bin	-INF	0
bin	-0.5	0
bin	-0.46666666666667	0
bin	-0.43333333333333	0
bin	-0.4	0
bin	-0.36666666666667	0
bin	-0.33333333333333	0
bin	-0.3	0
bin	-0.26666666666667	0
bin	-0.23333333333333	0
bin	-0.2	0
bin	-0.16666666666667	0
bin	-0.13333333333333	0
bin	-0.1	0
bin	-0.066666666666667	0
bin	-0.033333333333333	0
bin	0	0
bin	0.033333333333333	0
bin	0.066666666666667	0
bin	0.1	0
bin	0.13333333333333	0
bin	0.16666666666667	0
bin	0.2	0
bin	0.23333333333333	0
bin	0.26666666666667	0
bin	0.3	0
bin	0.33333333333333	0
bin	0.36666666666667	0
bin	0.4	0
bin	0.43333333333333	0
bin	0.46666666666667	0
bin	0.5	0
statistic scenarioPRJP1.node[2].wlan[0].radio 	packetErrorRate:histogram
field count 74437
field mean 0.052249708574779
field stddev 0.21743541361195
field sum 3889.3115571809
field sqrsum 3722.4124456361
field min 0
field max 1
attr source  packetErrorRate
attr title  "Packet error rate, histogram"
bin	-INF	0
bin	-0.5	0
bin	-0.43333333333333	0
bin	-0.36666666666667	0
bin	-0.3	0
bin	-0.23333333333333	0
bin	-0.16666666666667	0
bin	-0.1	0
bin	-0.033333333333333	69851
bin	0.033333333333333	292
bin	0.1	143
bin	0.16666666666667	97
bin	0.23333333333333	77
bin	0.3	57
bin	0.36666666666667	40
bin	0.43333333333333	39
bin	0.5	48
bin	0.56666666666667	27
bin	0.63333333333333	50
bin	0.7	51
bin	0.76666666666667	48
bin	0.83333333333333	71
bin	0.9	91
bin	0.96666666666667	3455
bin	1.0333333333333	0
bin	1.1	0
bin	1.1666666666667	0
bin	1.2333333333333	0
bin	1.3	0
bin	1.3666666666667	0
bin	1.4333333333333	0
bin	1.5	0
statistic scenarioPRJP1.node[2].wlan[0].radio 	minSNIR:histogram
field count 74437
field mean 18430.061256102
field stddev 80993.702490859
field sum 1371878469.7205
field sqrsum 5.1358246383966e+14
field min 0.00020348384364743
field max 3969602.7219479
attr source  minSNIR
attr title  "Min SNIR, histogram"
bin	-INF	0
bin	-119.56322798107	0
bin	-103.43419768471	0
bin	-87.30516738835	0
bin	-71.17613709199	0
bin	-55.04710679563	0
bin	-38.91807649927	0
bin	-22.78904620291	0
bin	-6.6600159065501	10477
bin	9.46901438981	5483
bin	25.59804468617	2703
bin	41.72707498253	1783
bin	57.85610527889	1317
bin	73.98513557525	1116
bin	90.11416587161	859
bin	106.24319616797	653
bin	122.37222646433	3457
bin	138.50125676069	3023
bin	154.63028705705	1816
bin	170.75931735341	2016
bin	186.88834764977	1471
bin	203.01737794613	1519
bin	219.14640824249	905
bin	235.27543853885	899
bin	251.40446883521	1022
bin	267.53349913157	875
bin	283.66252942793	786
bin	299.79155972429	839
bin	315.92059002065	765
bin	332.04962031701	783
bin	348.17865061337	702
bin	364.30768090973	29168
scalar scenarioPRJP1.node[2].lo0.lo 	droppedPkBitError:count 	0
attr interpolationmode  none
attr source  dropPkBitError
attr title  "packets dropped/bit error, count"
scalar scenarioPRJP1.node[2].lo0.lo 	droppedPkBitError:sum(packetBytes) 	0
attr interpolationmode  none
attr source  dropPkBitError
attr title  "packets dropped/bit error, sum(packetBytes)"
scalar scenarioPRJP1.node[2].lo0.lo 	rcvdPkFromHL:count 	1
attr interpolationmode  none
attr source  packetReceivedFromUpper
attr title  "packets received from higher layer, count"
scalar scenarioPRJP1.node[2].lo0.lo 	rcvdPkFromHL:sum(packetBytes) 	56
attr interpolationmode  none
attr source  packetReceivedFromUpper
attr title  "packets received from higher layer, sum(packetBytes)"
scalar scenarioPRJP1.node[2].lo0.lo 	passedUpPk:count 	1
attr interpolationmode  none
attr source  packetSentToUpper
attr title  "packets passed to higher layer, count"
scalar scenarioPRJP1.node[2].lo0.lo 	passedUpPk:sum(packetBytes) 	56
attr interpolationmode  none
attr source  packetSentToUpper
attr title  "packets passed to higher layer, sum(packetBytes)"
scalar scenarioPRJP1.node[22].app 	"Total sent" 	2609
scalar scenarioPRJP1.node[22].app 	"Total received" 	125
scalar scenarioPRJP1.node[22].app 	"Total deleted" 	128
scalar scenarioPRJP1.node[22].app 	dropPk:count 	128
attr interpolationmode  none
attr source  dropPk
attr title  "packets dropped, count"
scalar scenarioPRJP1.node[22].app 	dropPk:sum(packetBytes) 	65536
attr interpolationmode  none
attr source  dropPk
attr title  "packets dropped, sum(packetBytes)"
scalar scenarioPRJP1.node[22].app 	outOfOrderPk:count 	3
attr interpolationmode  none
attr source  outOfOrderPk
attr title  "packets received out of order, count"
scalar scenarioPRJP1.node[22].app 	outOfOrderPk:sum(packetBytes) 	1536
attr interpolationmode  none
attr source  outOfOrderPk
attr title  "packets received out of order, sum(packetBytes)"
scalar scenarioPRJP1.node[22].app 	rcvdPk:count 	125
attr interpolationmode  none
attr source  rcvdPk
attr title  "packets received, count"
scalar scenarioPRJP1.node[22].app 	rcvdPk:sum(packetBytes) 	64000
attr interpolationmode  none
attr source  rcvdPk
attr title  "packets received, sum(packetBytes)"
statistic scenarioPRJP1.node[22].app 	endToEndDelay:histogram
field count 125
field mean 1.7819552631336
field stddev 4.5591432644582
field sum 222.7444078917
field sqrsum 2974.3581959022
field min 0.0009452704
field max 19.65797694177
attr interpolationmode  none
attr source  messageAge(rcvdPk)
attr title  "delay, histogram"
attr unit  s
bin	-INF	0
bin	-9.827570565285	0
bin	-8.5171017871937	0
bin	-7.2066330091023	0
bin	-5.896164231011	0
bin	-4.5856954529197	0
bin	-3.2752266748283	0
bin	-1.964757896737	0
bin	-0.65428911864567	104
bin	0.65617965944567	2
bin	1.966648437537	0
bin	3.2771172156283	1
bin	4.5875859937197	3
bin	5.898054771811	0
bin	7.2085235499023	2
bin	8.5189923279937	2
bin	9.829461106085	0
bin	11.139929884176	3
bin	12.450398662268	3
bin	13.760867440359	0
bin	15.07133621845	1
bin	16.381804996542	1
bin	17.692273774633	0
bin	19.002742552724	3
bin	20.313211330816	0
bin	21.623680108907	0
bin	22.934148886998	0
bin	24.24461766509	0
bin	25.555086443181	0
bin	26.865555221272	0
bin	28.176023999364	0
bin	29.486492777455	0
scalar scenarioPRJP1.node[22].app 	sentPk:count 	2609
attr interpolationmode  none
attr source  sentPk
attr title  "packets sent, count"
scalar scenarioPRJP1.node[22].app 	sentPk:sum(packetBytes) 	1335808
attr interpolationmode  none
attr source  sentPk
attr title  "packets sent, sum(packetBytes)"
scalar scenarioPRJP1.node[22].udp 	droppedPkBadChecksum:count 	0
attr interpolationmode  none
attr title  "packets dropped (checksum error), count"
scalar scenarioPRJP1.node[22].udp 	droppedPkWrongPort:count 	0
attr interpolationmode  none
attr title  "packets dropped (wrong port), count"
scalar scenarioPRJP1.node[22].udp 	passedUpPk:count 	256
attr interpolationmode  none
attr title  "packets passed up, count"
scalar scenarioPRJP1.node[22].udp 	rcvdPk:count 	256
attr interpolationmode  none
attr source  rcvdPk
attr title  "packets received, count"
scalar scenarioPRJP1.node[22].udp 	rcvdPk:sum(packetBytes) 	133120
attr interpolationmode  none
attr source  rcvdPk
attr title  "packets received, sum(packetBytes)"
scalar scenarioPRJP1.node[22].udp 	sentPk:count 	2609
attr interpolationmode  none
attr source  sentPk
attr title  "packets sent, count"
scalar scenarioPRJP1.node[22].udp 	sentPk:sum(packetBytes) 	1356680
attr interpolationmode  none
attr source  sentPk
attr title  "packets sent, sum(packetBytes)"
scalar scenarioPRJP1.node[22].networkLayer.arp 	failedARPResolution:count 	3
attr title  "ARP failed resolutions, count"
scalar scenarioPRJP1.node[22].networkLayer.arp 	completedARPResolution:count 	152
attr title  "ARP completed resolutions, count"
scalar scenarioPRJP1.node[22].networkLayer.arp 	initiatedARPResolution:count 	30
attr title  "ARP initiated resolutions, count"
scalar scenarioPRJP1.node[22].networkLayer.arp 	sentReply:count 	31
attr title  "ARP replies sent, count"
scalar scenarioPRJP1.node[22].networkLayer.arp 	sentReq:count 	42
attr title  "ARP request sent, count"
scalar scenarioPRJP1.node[22].mobility 	startTime 	2.5
scalar scenarioPRJP1.node[22].mobility 	totalTime 	947.4
scalar scenarioPRJP1.node[22].mobility 	stopTime 	950
scalar scenarioPRJP1.node[22].mobility 	minSpeed 	2.4755420077029e-13
scalar scenarioPRJP1.node[22].mobility 	maxSpeed 	13.120366395069
scalar scenarioPRJP1.node[22].mobility 	totalDistance 	7975.6969946568
scalar scenarioPRJP1.node[22].mobility 	totalCO2Emission 	1978.2789138014
scalar scenarioPRJP1.node[22].wlan[0].mgmt 	dataQueueLen:max 	20
attr interpolationmode  sample-hold
attr title  "data queue length, max"
scalar scenarioPRJP1.node[22].wlan[0].mgmt 	dataQueueLen:timeavg 	0
attr interpolationmode  sample-hold
attr title  "data queue length, timeavg"
scalar scenarioPRJP1.node[22].wlan[0].mgmt 	dropPkByQueue:count 	0
attr interpolationmode  none
attr source  dropPkByQueue
attr title  "packets dropped by queue, count"
scalar scenarioPRJP1.node[22].wlan[0].mgmt 	dropPkByQueue:sum(packetBytes) 	0
attr interpolationmode  none
attr source  dropPkByQueue
attr title  "packets dropped by queue, sum(packetBytes)"
scalar scenarioPRJP1.node[22].wlan[0].mac 	"number of received packets" 	2733
scalar scenarioPRJP1.node[22].wlan[0].mac 	"number of collisions" 	3086
scalar scenarioPRJP1.node[22].wlan[0].mac 	"number of internal collisions" 	0
scalar scenarioPRJP1.node[22].wlan[0].mac 	"number of retry for AC 0" 	3497
scalar scenarioPRJP1.node[22].wlan[0].mac 	"number of retry for AC 1" 	0
scalar scenarioPRJP1.node[22].wlan[0].mac 	"number of retry for AC 2" 	0
scalar scenarioPRJP1.node[22].wlan[0].mac 	"number of retry for AC 3" 	0
scalar scenarioPRJP1.node[22].wlan[0].mac 	"sent and received bits" 	5783488
scalar scenarioPRJP1.node[22].wlan[0].mac 	"sent packet within AC 0" 	317
scalar scenarioPRJP1.node[22].wlan[0].mac 	"sent packet within AC 1" 	0
scalar scenarioPRJP1.node[22].wlan[0].mac 	"sent packet within AC 2" 	0
scalar scenarioPRJP1.node[22].wlan[0].mac 	"sent packet within AC 3" 	0
scalar scenarioPRJP1.node[22].wlan[0].mac 	"sent in TXOP " 	0
scalar scenarioPRJP1.node[22].wlan[0].mac 	"sentWithoutRetry AC 0" 	290
scalar scenarioPRJP1.node[22].wlan[0].mac 	"sentWithoutRetry AC 1" 	0
scalar scenarioPRJP1.node[22].wlan[0].mac 	"sentWithoutRetry AC 2" 	0
scalar scenarioPRJP1.node[22].wlan[0].mac 	"sentWithoutRetry AC 3" 	0
scalar scenarioPRJP1.node[22].wlan[0].mac 	"numGivenUp AC 0" 	573
scalar scenarioPRJP1.node[22].wlan[0].mac 	"numGivenUp AC 1" 	0
scalar scenarioPRJP1.node[22].wlan[0].mac 	"numGivenUp AC 2" 	0
scalar scenarioPRJP1.node[22].wlan[0].mac 	"numGivenUp AC 3" 	0
scalar scenarioPRJP1.node[22].wlan[0].mac 	"numDropped AC 0" 	0
scalar scenarioPRJP1.node[22].wlan[0].mac 	"numDropped AC 1" 	0
scalar scenarioPRJP1.node[22].wlan[0].mac 	"numDropped AC 2" 	0
scalar scenarioPRJP1.node[22].wlan[0].mac 	"numDropped AC 3" 	0
scalar scenarioPRJP1.node[22].wlan[0].mac 	rcvdPkFromLL:count 	40677
attr interpolationmode  none
attr source  packetReceivedFromLower
attr title  "packets received from lower layer, count"
scalar scenarioPRJP1.node[22].wlan[0].mac 	rcvdPkFromLL:sum(packetBytes) 	8332082
attr interpolationmode  none
attr source  packetReceivedFromLower
attr title  "packets received from lower layer, sum(packetBytes)"
scalar scenarioPRJP1.node[22].wlan[0].mac 	sentDownPk:count 	13512
attr interpolationmode  none
attr source  packetSentToLower
attr title  "packets sent to lower layer, count"
scalar scenarioPRJP1.node[22].wlan[0].mac 	sentDownPk:sum(packetBytes) 	2756986
attr interpolationmode  none
attr source  packetSentToLower
attr title  "packets sent to lower layer, sum(packetBytes)"
scalar scenarioPRJP1.node[22].wlan[0].mac 	rcvdPkFromHL:count 	7282
attr interpolationmode  none
attr source  packetReceivedFromUpper
attr title  "packets received from higher layer, count"
scalar scenarioPRJP1.node[22].wlan[0].mac 	rcvdPkFromHL:sum(packetBytes) 	1003264
attr interpolationmode  none
attr source  packetReceivedFromUpper
attr title  "packets received from higher layer, sum(packetBytes)"
scalar scenarioPRJP1.node[22].wlan[0].mac 	passedUpPk:count 	17673
attr interpolationmode  none
attr source  packetSentToUpper
attr title  "packets passed to higher layer, count"
[...]
scalar scenarioPRJP1.node[19].wlan[0].mac 	passedUpPk:sum(packetBytes) 	3580352
attr interpolationmode  none
attr source  packetSentToUpper
attr title  "packets passed to higher layer, sum(packetBytes)"
statistic scenarioPRJP1.node[19].wlan[0].radio 	radioChannel:histogram
field count 1
field mean 3
field stddev nan
field sum 3
field sqrsum 9
field min 3
field max 3
attr interpolationmode  sample-hold
attr source  radioChannelChanged
attr title  "Radio channel, histogram"
bin	-INF	0
bin	2	0
bin	3	1
bin	4	0
scalar scenarioPRJP1.node[19].wlan[0].radio 	transmissionState:count 	77216
attr interpolationmode  sample-hold
attr source  transmissionStateChanged
attr title  "Radio transmission state, count"
scalar scenarioPRJP1.node[19].wlan[0].radio 	receptionState:count 	206148
attr interpolationmode  sample-hold
attr source  receptionStateChanged
attr title  "Radio reception state, count"
scalar scenarioPRJP1.node[19].wlan[0].radio 	radioMode:count 	38610
attr interpolationmode  sample-hold
attr source  radioModeChanged
attr title  "Radio mode, count"
statistic scenarioPRJP1.node[19].wlan[0].radio 	symbolErrorRate:histogram
field count 0
field mean nan
field stddev nan
field sum 0
field sqrsum 0
field min nan
field max nan
attr source  symbolErrorRate
attr title  "Symbol error rate, histogram"
bin	-INF	0
bin	-0.5	0
bin	-0.46666666666667	0
bin	-0.43333333333333	0
bin	-0.4	0
bin	-0.36666666666667	0
bin	-0.33333333333333	0
bin	-0.3	0
bin	-0.26666666666667	0
bin	-0.23333333333333	0
bin	-0.2	0
bin	-0.16666666666667	0
bin	-0.13333333333333	0
bin	-0.1	0
bin	-0.066666666666667	0
bin	-0.033333333333333	0
bin	0	0
bin	0.033333333333333	0
bin	0.066666666666667	0
bin	0.1	0
bin	0.13333333333333	0
bin	0.16666666666667	0
bin	0.2	0
bin	0.23333333333333	0
bin	0.26666666666667	0
bin	0.3	0
bin	0.33333333333333	0
bin	0.36666666666667	0
bin	0.4	0
bin	0.43333333333333	0
bin	0.46666666666667	0
bin	0.5	0
statistic scenarioPRJP1.node[19].wlan[0].radio 	bitErrorRate:histogram
field count 0
field mean nan
field stddev nan
field sum 0
field sqrsum 0
field min nan
field max nan
attr source  bitErrorRate
attr title  "Bit error rate, histogram"
bin	-INF	0
bin	-0.5	0
bin	-0.46666666666667	0
bin	-0.43333333333333	0
bin	-0.4	0
bin	-0.36666666666667	0
bin	-0.33333333333333	0
bin	-0.3	0
bin	-0.26666666666667	0
bin	-0.23333333333333	0
bin	-0.2	0
bin	-0.16666666666667	0
bin	-0.13333333333333	0
bin	-0.1	0
bin	-0.066666666666667	0
bin	-0.033333333333333	0
bin	0	0
bin	0.033333333333333	0
bin	0.066666666666667	0
bin	0.1	0
bin	0.13333333333333	0
bin	0.16666666666667	0
bin	0.2	0
bin	0.23333333333333	0
bin	0.26666666666667	0
bin	0.3	0
bin	0.33333333333333	0
bin	0.36666666666667	0
bin	0.4	0
bin	0.43333333333333	0
bin	0.46666666666667	0
bin	0.5	0
statistic scenarioPRJP1.node[19].wlan[0].radio 	packetErrorRate:histogram
field count 83459
field mean 0.057856930165259
field stddev 0.22799908573128
field sum 4828.6815346623
field sqrsum 4617.8185682254
field min 0
field max 1
attr source  packetErrorRate
attr title  "Packet error rate, histogram"
bin	-INF	0
bin	-0.5	0
bin	-0.43333333333333	0
bin	-0.36666666666667	0
bin	-0.3	0
bin	-0.23333333333333	0
bin	-0.16666666666667	0
bin	-0.1	0
bin	-0.033333333333333	77744
bin	0.033333333333333	392
bin	0.1	157
bin	0.16666666666667	116
bin	0.23333333333333	88
bin	0.3	75
bin	0.36666666666667	74
bin	0.43333333333333	57
bin	0.5	61
bin	0.56666666666667	41
bin	0.63333333333333	61
bin	0.7	54
bin	0.76666666666667	58
bin	0.83333333333333	65
bin	0.9	138
bin	0.96666666666667	4278
bin	1.0333333333333	0
bin	1.1	0
bin	1.1666666666667	0
bin	1.2333333333333	0
bin	1.3	0
bin	1.3666666666667	0
bin	1.4333333333333	0
bin	1.5	0
statistic scenarioPRJP1.node[19].wlan[0].radio 	minSNIR:histogram
field count 83459
field mean 18636.734300638
field stddev 78661.343114677
field sum 1555403207.9969
field sqrsum 5.4539293302848e+14
field min 0.0002716558065694
field max 753239.71923443
attr source  minSNIR
attr title  "Min SNIR, histogram"
bin	-INF	0
bin	-82.097371950991	0
bin	-71.095582426032	0
bin	-60.093792901073	0
bin	-49.092003376114	0
bin	-38.090213851156	0
bin	-27.088424326197	0
bin	-16.086634801238	0
bin	-5.084845276279	9214
bin	5.9169442486798	6276
bin	16.918733773639	2641
bin	27.920523298598	1915
bin	38.922312823556	1439
bin	49.924102348515	1365
bin	60.925891873474	1121
bin	71.927681398433	962
bin	82.929470923392	875
bin	93.931260448351	751
bin	104.93304997331	728
bin	115.93483949827	722
bin	126.93662902323	2701
bin	137.93841854819	1960
bin	148.94020807314	1749
bin	159.9419975981	1461
bin	170.94378712306	1431
bin	181.94557664802	1554
bin	192.94736617298	1514
bin	203.94915569794	1249
bin	214.9509452229	1051
bin	225.95273474786	894
bin	236.95452427282	1028
bin	247.95631379777	38858
scalar scenarioPRJP1.node[19].lo0.lo 	droppedPkBitError:count 	0
attr interpolationmode  none
attr source  dropPkBitError
attr title  "packets dropped/bit error, count"
scalar scenarioPRJP1.node[19].lo0.lo 	droppedPkBitError:sum(packetBytes) 	0
attr interpolationmode  none
attr source  dropPkBitError
attr title  "packets dropped/bit error, sum(packetBytes)"
scalar scenarioPRJP1.node[19].lo0.lo 	rcvdPkFromHL:count 	0
attr interpolationmode  none
attr source  packetReceivedFromUpper
attr title  "packets received from higher layer, count"
scalar scenarioPRJP1.node[19].lo0.lo 	rcvdPkFromHL:sum(packetBytes) 	0
attr interpolationmode  none
attr source  packetReceivedFromUpper
attr title  "packets received from higher layer, sum(packetBytes)"
scalar scenarioPRJP1.node[19].lo0.lo 	passedUpPk:count 	0
attr interpolationmode  none
attr source  packetSentToUpper
attr title  "packets passed to higher layer, count"
scalar scenarioPRJP1.node[19].lo0.lo 	passedUpPk:sum(packetBytes) 	0
attr interpolationmode  none
attr source  packetSentToUpper
attr title  "packets passed to higher layer, sum(packetBytes)"
scalar scenarioPRJP1.node[37].app 	"Total sent" 	2604
scalar scenarioPRJP1.node[37].app 	"Total received" 	170
scalar scenarioPRJP1.node[37].app 	"Total deleted" 	170
scalar scenarioPRJP1.node[37].app 	dropPk:count 	170
attr interpolationmode  none
attr source  dropPk
attr title  "packets dropped, count"
scalar scenarioPRJP1.node[37].app 	dropPk:sum(packetBytes) 	87040
attr interpolationmode  none
attr source  dropPk
attr title  "packets dropped, sum(packetBytes)"
scalar scenarioPRJP1.node[37].app 	outOfOrderPk:count 	44
attr interpolationmode  none
attr source  outOfOrderPk
attr title  "packets received out of order, count"
scalar scenarioPRJP1.node[37].app 	outOfOrderPk:sum(packetBytes) 	22528
attr interpolationmode  none
attr source  outOfOrderPk
attr title  "packets received out of order, sum(packetBytes)"
scalar scenarioPRJP1.node[37].app 	rcvdPk:count 	170
attr interpolationmode  none
attr source  rcvdPk
attr title  "packets received, count"
scalar scenarioPRJP1.node[37].app 	rcvdPk:sum(packetBytes) 	87040
attr interpolationmode  none
attr source  rcvdPk
attr title  "packets received, sum(packetBytes)"
statistic scenarioPRJP1.node[37].app 	endToEndDelay:histogram
field count 170
field mean 1.6314011889175
field stddev 4.3617237181241
field sum 277.33820211598
field sqrsum 3667.6129837228
field min 0.000945217193
field max 19.044023394212
attr interpolationmode  none
attr source  messageAge(rcvdPk)
attr title  "delay, histogram"
attr unit  s
bin	-INF	0
bin	-8.490609947474	0
bin	-7.3584025921851	0
bin	-6.2261952368961	0
bin	-5.0939878816072	0
bin	-3.9617805263183	0
bin	-2.8295731710293	0
bin	-1.6973658157404	0
bin	-0.56515846045147	142
bin	0.56704889483747	4
bin	1.6992562501264	0
bin	2.8314636054153	2
bin	3.9636709607043	1
bin	5.0958783159932	3
bin	6.2280856712821	2
bin	7.3602930265711	0
bin	8.49250038186	1
bin	9.6247077371489	3
bin	10.756915092438	1
bin	11.889122447727	2
bin	13.021329803016	1
bin	14.153537158305	2
bin	15.285744513594	1
bin	16.417951868883	1
bin	17.550159224171	3
bin	18.68236657946	1
bin	19.814573934749	0
bin	20.946781290038	0
bin	22.078988645327	0
bin	23.211196000616	0
bin	24.343403355905	0
bin	25.475610711194	0
scalar scenarioPRJP1.node[37].app 	sentPk:count 	2604
attr interpolationmode  none
attr source  sentPk
attr title  "packets sent, count"
scalar scenarioPRJP1.node[37].app 	sentPk:sum(packetBytes) 	1333248
attr interpolationmode  none
attr source  sentPk
attr title  "packets sent, sum(packetBytes)"
scalar scenarioPRJP1.node[37].udp 	droppedPkBadChecksum:count 	0
attr interpolationmode  none
attr title  "packets dropped (checksum error), count"
scalar scenarioPRJP1.node[37].udp 	droppedPkWrongPort:count 	0
attr interpolationmode  none
attr title  "packets dropped (wrong port), count"
scalar scenarioPRJP1.node[37].udp 	passedUpPk:count 	384
attr interpolationmode  none
attr title  "packets passed up, count"
scalar scenarioPRJP1.node[37].udp 	rcvdPk:count 	384
attr interpolationmode  none
attr source  rcvdPk
attr title  "packets received, count"
scalar scenarioPRJP1.node[37].udp 	rcvdPk:sum(packetBytes) 	199680
attr interpolationmode  none
attr source  rcvdPk
attr title  "packets received, sum(packetBytes)"
scalar scenarioPRJP1.node[37].udp 	sentPk:count 	2604
attr interpolationmode  none
attr source  sentPk
attr title  "packets sent, count"
scalar scenarioPRJP1.node[37].udp 	sentPk:sum(packetBytes) 	1354080
attr interpolationmode  none
attr source  sentPk
attr title  "packets sent, sum(packetBytes)"
scalar scenarioPRJP1.node[37].networkLayer.arp 	failedARPResolution:count 	4
attr title  "ARP failed resolutions, count"
scalar scenarioPRJP1.node[37].networkLayer.arp 	completedARPResolution:count 	195
attr title  "ARP completed resolutions, count"
scalar scenarioPRJP1.node[37].networkLayer.arp 	initiatedARPResolution:count 	32
attr title  "ARP initiated resolutions, count"
scalar scenarioPRJP1.node[37].networkLayer.arp 	sentReply:count 	31
attr title  "ARP replies sent, count"
scalar scenarioPRJP1.node[37].networkLayer.arp 	sentReq:count 	43
attr title  "ARP request sent, count"
scalar scenarioPRJP1.node[37].mobility 	startTime 	2.5
scalar scenarioPRJP1.node[37].mobility 	totalTime 	947.4
scalar scenarioPRJP1.node[37].mobility 	stopTime 	950
scalar scenarioPRJP1.node[37].mobility 	minSpeed 	2.4754285806263e-13
scalar scenarioPRJP1.node[37].mobility 	maxSpeed 	15.460884054796
scalar scenarioPRJP1.node[37].mobility 	totalDistance 	8607.6410495565
scalar scenarioPRJP1.node[37].mobility 	totalCO2Emission 	2157.7443608801
scalar scenarioPRJP1.node[37].wlan[0].mgmt 	dataQueueLen:max 	28
attr interpolationmode  sample-hold
attr title  "data queue length, max"
scalar scenarioPRJP1.node[37].wlan[0].mgmt 	dataQueueLen:timeavg 	0
attr interpolationmode  sample-hold
attr title  "data queue length, timeavg"
scalar scenarioPRJP1.node[37].wlan[0].mgmt 	dropPkByQueue:count 	0
attr interpolationmode  none
attr source  dropPkByQueue
attr title  "packets dropped by queue, count"
scalar scenarioPRJP1.node[37].wlan[0].mgmt 	dropPkByQueue:sum(packetBytes) 	0
attr interpolationmode  none
attr source  dropPkByQueue
attr title  "packets dropped by queue, sum(packetBytes)"
scalar scenarioPRJP1.node[37].wlan[0].mac 	"number of received packets" 	3246
scalar scenarioPRJP1.node[37].wlan[0].mac 	"number of collisions" 	3173
scalar scenarioPRJP1.node[37].wlan[0].mac 	"number of internal collisions" 	0
scalar scenarioPRJP1.node[37].wlan[0].mac 	"number of retry for AC 0" 	3100
scalar scenarioPRJP1.node[37].wlan[0].mac 	"number of retry for AC 1" 	0
scalar scenarioPRJP1.node[37].wlan[0].mac 	"number of retry for AC 2" 	0
scalar scenarioPRJP1.node[37].wlan[0].mac 	"number of retry for AC 3" 	0
scalar scenarioPRJP1.node[37].wlan[0].mac 	"sent and received bits" 	6360896
scalar scenarioPRJP1.node[37].wlan[0].mac 	"sent packet within AC 0" 	425
scalar scenarioPRJP1.node[37].wlan[0].mac 	"sent packet within AC 1" 	0
scalar scenarioPRJP1.node[37].wlan[0].mac 	"sent packet within AC 2" 	0
scalar scenarioPRJP1.node[37].wlan[0].mac 	"sent packet within AC 3" 	0
scalar scenarioPRJP1.node[37].wlan[0].mac 	"sent in TXOP " 	0
scalar scenarioPRJP1.node[37].wlan[0].mac 	"sentWithoutRetry AC 0" 	398
scalar scenarioPRJP1.node[37].wlan[0].mac 	"sentWithoutRetry AC 1" 	0
scalar scenarioPRJP1.node[37].wlan[0].mac 	"sentWithoutRetry AC 2" 	0
scalar scenarioPRJP1.node[37].wlan[0].mac 	"sentWithoutRetry AC 3" 	0
scalar scenarioPRJP1.node[37].wlan[0].mac 	"numGivenUp AC 0" 	511
scalar scenarioPRJP1.node[37].wlan[0].mac 	"numGivenUp AC 1" 	0
scalar scenarioPRJP1.node[37].wlan[0].mac 	"numGivenUp AC 2" 	0
scalar scenarioPRJP1.node[37].wlan[0].mac 	"numGivenUp AC 3" 	0
scalar scenarioPRJP1.node[37].wlan[0].mac 	"numDropped AC 0" 	0
scalar scenarioPRJP1.node[37].wlan[0].mac 	"numDropped AC 1" 	0
scalar scenarioPRJP1.node[37].wlan[0].mac 	"numDropped AC 2" 	0
scalar scenarioPRJP1.node[37].wlan[0].mac 	"numDropped AC 3" 	0
scalar scenarioPRJP1.node[37].wlan[0].mac 	rcvdPkFromLL:count 	59074
attr interpolationmode  none
attr source  packetReceivedFromLower
attr title  "packets received from lower layer, count"
scalar scenarioPRJP1.node[37].wlan[0].mac 	rcvdPkFromLL:sum(packetBytes) 	12256108
attr interpolationmode  none
attr source  packetReceivedFromLower
attr title  "packets received from lower layer, sum(packetBytes)"
scalar scenarioPRJP1.node[37].wlan[0].mac 	sentDownPk:count 	13912
attr interpolationmode  none
attr source  packetSentToLower
attr title  "packets sent to lower layer, count"
scalar scenarioPRJP1.node[37].wlan[0].mac 	sentDownPk:sum(packetBytes) 	2541456
attr interpolationmode  none
attr source  packetSentToLower
attr title  "packets sent to lower layer, sum(packetBytes)"
scalar scenarioPRJP1.node[37].wlan[0].mac 	rcvdPkFromHL:count 	7566
attr interpolationmode  none
attr source  packetReceivedFromUpper
attr title  "packets received from higher layer, count"
scalar scenarioPRJP1.node[37].wlan[0].mac 	rcvdPkFromHL:sum(packetBytes) 	1035792
attr interpolationmode  none
attr source  packetReceivedFromUpper
attr title  "packets received from higher layer, sum(packetBytes)"
scalar scenarioPRJP1.node[37].wlan[0].mac 	passedUpPk:count 	24181
attr interpolationmode  none
attr source  packetSentToUpper
attr title  "packets passed to higher layer, count"
scalar scenarioPRJP1.node[37].wlan[0].mac 	passedUpPk:sum(packetBytes) 	2523040
attr interpolationmode  none
attr source  packetSentToUpper
attr title  "packets passed to higher layer, sum(packetBytes)"
statistic scenarioPRJP1.node[37].wlan[0].radio 	radioChannel:histogram
field count 1
field mean 3
field stddev nan
field sum 3
field sqrsum 9
field min 3
field max 3
attr interpolationmode  sample-hold
attr source  radioChannelChanged
attr title  "Radio channel, histogram"
bin	-INF	0
bin	2	0
bin	3	1
bin	4	0
scalar scenarioPRJP1.node[37].wlan[0].radio 	transmissionState:count 	55648
attr interpolationmode  sample-hold
attr source  transmissionStateChanged
attr title  "Radio transmission state, count"
scalar scenarioPRJP1.node[37].wlan[0].radio 	receptionState:count 	146406
attr interpolationmode  sample-hold
attr source  receptionStateChanged
attr title  "Radio reception state, count"
scalar scenarioPRJP1.node[37].wlan[0].radio 	radioMode:count 	27826
attr interpolationmode  sample-hold
attr source  radioModeChanged
attr title  "Radio mode, count"
statistic scenarioPRJP1.node[37].wlan[0].radio 	symbolErrorRate:histogram
field count 0
field mean nan
field stddev nan
field sum 0
field sqrsum 0
field min nan
field max nan
attr source  symbolErrorRate
attr title  "Symbol error rate, histogram"
bin	-INF	0
bin	-0.5	0
bin	-0.46666666666667	0
bin	-0.43333333333333	0
bin	-0.4	0
bin	-0.36666666666667	0
bin	-0.33333333333333	0
bin	-0.3	0
bin	-0.26666666666667	0
bin	-0.23333333333333	0
bin	-0.2	0
bin	-0.16666666666667	0
bin	-0.13333333333333	0
bin	-0.1	0
bin	-0.066666666666667	0
bin	-0.033333333333333	0
bin	0	0
bin	0.033333333333333	0
bin	0.066666666666667	0
bin	0.1	0
bin	0.13333333333333	0
bin	0.16666666666667	0
bin	0.2	0
bin	0.23333333333333	0
bin	0.26666666666667	0
bin	0.3	0
bin	0.33333333333333	0
bin	0.36666666666667	0
bin	0.4	0
bin	0.43333333333333	0
bin	0.46666666666667	0
bin	0.5	0
statistic scenarioPRJP1.node[37].wlan[0].radio 	bitErrorRate:histogram
field count 0
field mean nan
field stddev nan
field sum 0
field sqrsum 0
field min nan
field max nan
attr source  bitErrorRate
attr title  "Bit error rate, histogram"
bin	-INF	0
bin	-0.5	0
bin	-0.46666666666667	0
bin	-0.43333333333333	0
bin	-0.4	0
bin	-0.36666666666667	0
bin	-0.33333333333333	0
bin	-0.3	0
bin	-0.26666666666667	0
bin	-0.23333333333333	0
bin	-0.2	0
bin	-0.16666666666667	0
bin	-0.13333333333333	0
bin	-0.1	0
bin	-0.066666666666667	0
bin	-0.033333333333333	0
bin	0	0
bin	0.033333333333333	0
bin	0.066666666666667	0
bin	0.1	0
bin	0.13333333333333	0
bin	0.16666666666667	0
bin	0.2	0
bin	0.23333333333333	0
bin	0.26666666666667	0
bin	0.3	0
bin	0.33333333333333	0
bin	0.36666666666667	0
bin	0.4	0
bin	0.43333333333333	0
bin	0.46666666666667	0
bin	0.5	0
statistic scenarioPRJP1.node[37].wlan[0].radio 	packetErrorRate:histogram
field count 59074
field mean 0.049290712575289
field stddev 0.2110007095753
field sum 2911.7995546726
field sqrsum 2773.5313968211
field min 0
field max 1
attr source  packetErrorRate
attr title  "Packet error rate, histogram"
bin	-INF	0
bin	-0.5	0
bin	-0.43333333333333	0
bin	-0.36666666666667	0
bin	-0.3	0
bin	-0.23333333333333	0
bin	-0.16666666666667	0
bin	-0.1	0
bin	-0.033333333333333	55613
bin	0.033333333333333	194
bin	0.1	114
bin	0.16666666666667	83
bin	0.23333333333333	75
bin	0.3	47
bin	0.36666666666667	53
bin	0.43333333333333	38
bin	0.5	36
bin	0.56666666666667	35
bin	0.63333333333333	41
bin	0.7	32
bin	0.76666666666667	37
bin	0.83333333333333	29
bin	0.9	58
bin	0.96666666666667	2589
bin	1.0333333333333	0
bin	1.1	0
bin	1.1666666666667	0
bin	1.2333333333333	0
bin	1.3	0
bin	1.3666666666667	0
bin	1.4333333333333	0
bin	1.5	0
statistic scenarioPRJP1.node[37].wlan[0].radio 	minSNIR:histogram
field count 59074
field mean 18267.800901763
field stddev 83509.34269344
field sum 1079152070.4707
field sqrsum 4.3167763202756e+14
field min 0.0002245440707935
field max 753239.71923441
attr source  minSNIR
attr title  "Min SNIR, histogram"
bin	-INF	0
bin	-134.84903212314	0
bin	-116.6393755244	0
bin	-98.429718925663	0
bin	-80.220062326923	0
bin	-62.010405728184	0
bin	-43.800749129444	0
bin	-25.591092530705	0
bin	-7.3814359319649	7887
bin	10.828220666775	4235
bin	29.037877265514	1855
bin	47.247533864254	1357
bin	65.457190462993	1351
bin	83.666847061733	940
bin	101.87650366047	836
bin	120.08616025921	2089
bin	138.29581685795	2211
bin	156.50547345669	2077
bin	174.71513005543	2032
bin	192.92478665417	1865
bin	211.13444325291	1345
bin	229.34409985165	1188
bin	247.55375645039	1038
bin	265.76341304913	970
bin	283.97306964787	672
bin	302.18272624661	628
bin	320.39238284535	516
bin	338.60203944409	507
bin	356.81169604283	382
bin	375.02135264157	347
bin	393.23100924031	342
bin	411.44066583904	22404
scalar scenarioPRJP1.node[37].lo0.lo 	droppedPkBitError:count 	0
attr interpolationmode  none
attr source  dropPkBitError
attr title  "packets dropped/bit error, count"
scalar scenarioPRJP1.node[37].lo0.lo 	droppedPkBitError:sum(packetBytes) 	0
attr interpolationmode  none
attr source  dropPkBitError
attr title  "packets dropped/bit error, sum(packetBytes)"
scalar scenarioPRJP1.node[37].lo0.lo 	rcvdPkFromHL:count 	0
attr interpolationmode  none
attr source  packetReceivedFromUpper
attr title  "packets received from higher layer, count"
scalar scenarioPRJP1.node[37].lo0.lo 	rcvdPkFromHL:sum(packetBytes) 	0
attr interpolationmode  none
attr source  packetReceivedFromUpper
attr title  "packets received from higher layer, sum(packetBytes)"
scalar scenarioPRJP1.node[37].lo0.lo 	passedUpPk:count 	0
attr interpolationmode  none
attr source  packetSentToUpper
attr title  "packets passed to higher layer, count"
scalar scenarioPRJP1.node[37].lo0.lo 	passedUpPk:sum(packetBytes) 	0
attr interpolationmode  none
attr source  packetSentToUpper
attr title  "packets passed to higher layer, sum(packetBytes)"
