version 2
run DYMOUU-LNS-25n-13-20150704-05:17:48-7200
attr configname DYMOUU-LNS-25n
attr datetime 20150704-05:17:48
attr experiment DYMOUU-LNS-25n
attr inifile omnetpp.ini
attr iterationvars ""
attr iterationvars2 $repetition=13
attr measurement ""
attr network Prj_Part1_propag.scenarioPRJP1
attr processid 7200
attr repetition 13
attr replication #13
attr resultdir results
attr runnumber 13
attr seedset 13

scalar scenarioPRJP1.node[6].app 	"Total sent" 	5022
scalar scenarioPRJP1.node[6].app 	"Total received" 	4582
scalar scenarioPRJP1.node[6].app 	"Total deleted" 	0
scalar scenarioPRJP1.node[6].app 	dropPk:count 	0
attr interpolationmode  none
attr source  dropPk
attr title  "packets dropped, count"
scalar scenarioPRJP1.node[6].app 	dropPk:sum(packetBytes) 	0
attr interpolationmode  none
attr source  dropPk
attr title  "packets dropped, sum(packetBytes)"
scalar scenarioPRJP1.node[6].app 	outOfOrderPk:count 	1
attr interpolationmode  none
attr source  outOfOrderPk
attr title  "packets received out of order, count"
scalar scenarioPRJP1.node[6].app 	outOfOrderPk:sum(packetBytes) 	512
attr interpolationmode  none
attr source  outOfOrderPk
attr title  "packets received out of order, sum(packetBytes)"
scalar scenarioPRJP1.node[6].app 	rcvdPk:count 	4582
attr interpolationmode  none
attr source  rcvdPk
attr title  "packets received, count"
scalar scenarioPRJP1.node[6].app 	rcvdPk:sum(packetBytes) 	2345984
attr interpolationmode  none
attr source  rcvdPk
attr title  "packets received, sum(packetBytes)"
statistic scenarioPRJP1.node[6].app 	endToEndDelay:histogram
field count 4582
field mean 0.10093998528075
field stddev 0.32827678828558
field sum 462.50701255642
field sqrsum 540.35989243952
field min 0.000885589354
field max 5.586251813731
attr interpolationmode  none
attr source  messageAge(rcvdPk)
attr title  "delay, histogram"
attr unit  s
bin	-INF	0
bin	-2.625414845193	0
bin	-2.2752273379909	0
bin	-1.9250398307887	0
bin	-1.5748523235866	0
bin	-1.2246648163845	0
bin	-0.87447730918233	0
bin	-0.5242898019802	0
bin	-0.17410229477807	4434
bin	0.17608521242407	26
bin	0.5262727196262	26
bin	0.87646022682833	19
bin	1.2266477340305	7
bin	1.5768352412326	13
bin	1.9270227484347	12
bin	2.2772102556369	34
bin	2.627397762839	5
bin	2.9775852700411	1
bin	3.3277727772433	0
bin	3.6779602844454	0
bin	4.0281477916475	1
bin	4.3783352988497	1
bin	4.7285228060518	1
bin	5.0787103132539	1
bin	5.4288978204561	1
bin	5.7790853276582	0
bin	6.1292728348603	0
bin	6.4794603420625	0
bin	6.8296478492646	0
bin	7.1798353564667	0
bin	7.5300228636689	0
bin	7.880210370871	0
scalar scenarioPRJP1.node[6].app 	sentPk:count 	5022
attr interpolationmode  none
attr source  sentPk
attr title  "packets sent, count"
scalar scenarioPRJP1.node[6].app 	sentPk:sum(packetBytes) 	2571264
attr interpolationmode  none
attr source  sentPk
attr title  "packets sent, sum(packetBytes)"
scalar scenarioPRJP1.node[6].udp 	droppedPkBadChecksum:count 	0
attr interpolationmode  none
attr title  "packets dropped (checksum error), count"
scalar scenarioPRJP1.node[6].udp 	droppedPkWrongPort:count 	0
attr interpolationmode  none
attr title  "packets dropped (wrong port), count"
scalar scenarioPRJP1.node[6].udp 	passedUpPk:count 	4583
attr interpolationmode  none
attr title  "packets passed up, count"
scalar scenarioPRJP1.node[6].udp 	rcvdPk:count 	4583
attr interpolationmode  none
attr source  rcvdPk
attr title  "packets received, count"
scalar scenarioPRJP1.node[6].udp 	rcvdPk:sum(packetBytes) 	2383160
attr interpolationmode  none
attr source  rcvdPk
attr title  "packets received, sum(packetBytes)"
scalar scenarioPRJP1.node[6].udp 	sentPk:count 	5022
attr interpolationmode  none
attr source  sentPk
attr title  "packets sent, count"
scalar scenarioPRJP1.node[6].udp 	sentPk:sum(packetBytes) 	2611440
attr interpolationmode  none
attr source  sentPk
attr title  "packets sent, sum(packetBytes)"
scalar scenarioPRJP1.node[6].networkLayer.arp 	failedARPResolution:count 	3
attr title  "ARP failed resolutions, count"
scalar scenarioPRJP1.node[6].networkLayer.arp 	completedARPResolution:count 	1276
attr title  "ARP completed resolutions, count"
scalar scenarioPRJP1.node[6].networkLayer.arp 	initiatedARPResolution:count 	71
attr title  "ARP initiated resolutions, count"
scalar scenarioPRJP1.node[6].networkLayer.arp 	sentReply:count 	41
attr title  "ARP replies sent, count"
scalar scenarioPRJP1.node[6].networkLayer.arp 	sentReq:count 	125
attr title  "ARP request sent, count"
scalar scenarioPRJP1.node[6].manetrouting 	"simulated time" 	1833.1
scalar scenarioPRJP1.node[6].manetrouting 	"Dymo totalSend " 	593158
scalar scenarioPRJP1.node[6].manetrouting 	"Dymo Rreq send" 	246844
scalar scenarioPRJP1.node[6].manetrouting 	"Dymo Rreq rec" 	246713
scalar scenarioPRJP1.node[6].manetrouting 	"Dymo Rrep send" 	21935
scalar scenarioPRJP1.node[6].manetrouting 	"Dymo Rrep rec" 	20621
scalar scenarioPRJP1.node[6].manetrouting 	"Dymo Rerr send" 	5656
scalar scenarioPRJP1.node[6].manetrouting 	"Dymo Rerr rec" 	84063
scalar scenarioPRJP1.node[6].mobility 	startTime 	0.1
scalar scenarioPRJP1.node[6].mobility 	totalTime 	1832.9
scalar scenarioPRJP1.node[6].mobility 	stopTime 	1833.1
scalar scenarioPRJP1.node[6].mobility 	minSpeed 	2.4755563962933e-13
scalar scenarioPRJP1.node[6].mobility 	maxSpeed 	16.126783826364
scalar scenarioPRJP1.node[6].mobility 	totalDistance 	19783.418408842
scalar scenarioPRJP1.node[6].mobility 	totalCO2Emission 	4767.6507921699
scalar scenarioPRJP1.node[6].wlan.mgmt 	dataQueueLen:max 	7
attr interpolationmode  sample-hold
attr title  "data queue length, max"
scalar scenarioPRJP1.node[6].wlan.mgmt 	dataQueueLen:timeavg 	0
attr interpolationmode  sample-hold
attr title  "data queue length, timeavg"
scalar scenarioPRJP1.node[6].wlan.mgmt 	dropPkByQueue:count 	0
attr interpolationmode  none
attr source  dropPkByQueue
attr title  "packets dropped by queue, count"
scalar scenarioPRJP1.node[6].wlan.mgmt 	dropPkByQueue:sum(packetBytes) 	0
attr interpolationmode  none
attr source  dropPkByQueue
attr title  "packets dropped by queue, sum(packetBytes)"
scalar scenarioPRJP1.node[6].wlan.mac 	"number of received packets" 	9013
scalar scenarioPRJP1.node[6].wlan.mac 	"number of collisions" 	198066
scalar scenarioPRJP1.node[6].wlan.mac 	"number of internal collisions" 	0
scalar scenarioPRJP1.node[6].wlan.mac 	"number of retry for AC 0" 	18816
scalar scenarioPRJP1.node[6].wlan.mac 	"number of retry for AC 1" 	0
scalar scenarioPRJP1.node[6].wlan.mac 	"number of retry for AC 2" 	0
scalar scenarioPRJP1.node[6].wlan.mac 	"number of retry for AC 3" 	0
scalar scenarioPRJP1.node[6].wlan.mac 	"sent and received bits" 	45225296
scalar scenarioPRJP1.node[6].wlan.mac 	"sent packet within AC 0" 	7647
scalar scenarioPRJP1.node[6].wlan.mac 	"sent packet within AC 1" 	4
scalar scenarioPRJP1.node[6].wlan.mac 	"sent packet within AC 2" 	0
scalar scenarioPRJP1.node[6].wlan.mac 	"sent packet within AC 3" 	0
scalar scenarioPRJP1.node[6].wlan.mac 	"sent in TXOP " 	0
scalar scenarioPRJP1.node[6].wlan.mac 	"sentWithoutRetry AC 0" 	3304
scalar scenarioPRJP1.node[6].wlan.mac 	"sentWithoutRetry AC 1" 	4
scalar scenarioPRJP1.node[6].wlan.mac 	"sentWithoutRetry AC 2" 	0
scalar scenarioPRJP1.node[6].wlan.mac 	"sentWithoutRetry AC 3" 	0
scalar scenarioPRJP1.node[6].wlan.mac 	"numGivenUp AC 0" 	917
scalar scenarioPRJP1.node[6].wlan.mac 	"numGivenUp AC 1" 	0
scalar scenarioPRJP1.node[6].wlan.mac 	"numGivenUp AC 2" 	0
scalar scenarioPRJP1.node[6].wlan.mac 	"numGivenUp AC 3" 	0
scalar scenarioPRJP1.node[6].wlan.mac 	"numDropped AC 0" 	0
scalar scenarioPRJP1.node[6].wlan.mac 	"numDropped AC 1" 	0
scalar scenarioPRJP1.node[6].wlan.mac 	"numDropped AC 2" 	0
scalar scenarioPRJP1.node[6].wlan.mac 	"numDropped AC 3" 	0
scalar scenarioPRJP1.node[6].wlan.mac 	rcvdPkFromLL:count 	697511
attr interpolationmode  none
attr source  packetReceivedFromLower
attr title  "packets received from lower layer, count"
scalar scenarioPRJP1.node[6].wlan.mac 	rcvdPkFromLL:sum(packetBytes) 	212396668
attr interpolationmode  none
attr source  packetReceivedFromLower
attr title  "packets received from lower layer, sum(packetBytes)"
scalar scenarioPRJP1.node[6].wlan.mac 	sentDownPk:count 	47418
attr interpolationmode  none
attr source  packetSentToLower
attr title  "packets sent to lower layer, count"
scalar scenarioPRJP1.node[6].wlan.mac 	sentDownPk:sum(packetBytes) 	16536115
attr interpolationmode  none
attr source  packetSentToLower
attr title  "packets sent to lower layer, sum(packetBytes)"
scalar scenarioPRJP1.node[6].wlan.mac 	rcvdPkFromHL:count 	19589
attr interpolationmode  none
attr source  packetReceivedFromUpper
attr title  "packets received from higher layer, count"
scalar scenarioPRJP1.node[6].wlan.mac 	rcvdPkFromHL:sum(packetBytes) 	6159436
attr interpolationmode  none
attr source  packetReceivedFromUpper
attr title  "packets received from higher layer, sum(packetBytes)"
scalar scenarioPRJP1.node[6].wlan.mac 	passedUpPk:count 	144478
attr interpolationmode  none
attr source  packetSentToUpper
attr title  "packets passed to higher layer, count"
scalar scenarioPRJP1.node[6].wlan.mac 	passedUpPk:sum(packetBytes) 	24796701
attr interpolationmode  none
attr source  packetSentToUpper
attr title  "packets passed to higher layer, sum(packetBytes)"
statistic scenarioPRJP1.node[6].wlan.radio 	radioChannel:histogram
field count 1
field mean 3
field stddev -nan
field sum 3
field sqrsum 9
field min 3
field max 3
attr interpolationmode  sample-hold
attr source  radioChannelChanged
attr title  "Radio channel, histogram"
bin	-INF	0
bin	2	0
bin	3	1
bin	4	0
scalar scenarioPRJP1.node[6].wlan.radio 	transmissionState:count 	189672
attr interpolationmode  sample-hold
attr source  transmissionStateChanged
attr title  "Radio transmission state, count"
scalar scenarioPRJP1.node[6].wlan.radio 	receptionState:count 	1638947
attr interpolationmode  sample-hold
attr source  receptionStateChanged
attr title  "Radio reception state, count"
scalar scenarioPRJP1.node[6].wlan.radio 	radioMode:count 	94838
attr interpolationmode  sample-hold
attr source  radioModeChanged
attr title  "Radio mode, count"
statistic scenarioPRJP1.node[6].wlan.radio 	symbolErrorRate:histogram
field count 0
field mean -nan
field stddev -nan
field sum 0
field sqrsum 0
field min -nan
field max -nan
attr source  symbolErrorRate
attr title  "Symbol error rate, histogram"
bin	-INF	0
bin	-0.5	0
bin	-0.46666666666667	0
bin	-0.43333333333333	0
bin	-0.4	0
bin	-0.36666666666667	0
bin	-0.33333333333333	0
bin	-0.3	0
bin	-0.26666666666667	0
bin	-0.23333333333333	0
bin	-0.2	0
bin	-0.16666666666667	0
bin	-0.13333333333333	0
bin	-0.1	0
bin	-0.066666666666667	0
bin	-0.033333333333333	0
bin	0	0
bin	0.033333333333333	0
bin	0.066666666666667	0
bin	0.1	0
bin	0.13333333333333	0
bin	0.16666666666667	0
bin	0.2	0
bin	0.23333333333333	0
bin	0.26666666666667	0
bin	0.3	0
bin	0.33333333333333	0
bin	0.36666666666667	0
bin	0.4	0
bin	0.43333333333333	0
bin	0.46666666666667	0
bin	0.5	0
statistic scenarioPRJP1.node[6].wlan.radio 	bitErrorRate:histogram
field count 0
field mean -nan
field stddev -nan
field sum 0
field sqrsum 0
field min -nan
field max -nan
attr source  bitErrorRate
attr title  "Bit error rate, histogram"
bin	-INF	0
bin	-0.5	0
bin	-0.46666666666667	0
bin	-0.43333333333333	0
bin	-0.4	0
bin	-0.36666666666667	0
bin	-0.33333333333333	0
bin	-0.3	0
bin	-0.26666666666667	0
bin	-0.23333333333333	0
bin	-0.2	0
bin	-0.16666666666667	0
bin	-0.13333333333333	0
bin	-0.1	0
bin	-0.066666666666667	0
bin	-0.033333333333333	0
bin	0	0
bin	0.033333333333333	0
bin	0.066666666666667	0
bin	0.1	0
bin	0.13333333333333	0
bin	0.16666666666667	0
bin	0.2	0
bin	0.23333333333333	0
bin	0.26666666666667	0
bin	0.3	0
bin	0.33333333333333	0
bin	0.36666666666667	0
bin	0.4	0
bin	0.43333333333333	0
bin	0.46666666666667	0
bin	0.5	0
statistic scenarioPRJP1.node[6].wlan.radio 	packetErrorRate:histogram
field count 697511
field mean 0.27402713981231
field stddev 0.44143705511369
field sum 191136.94431762
field sqrsum 188298.1636857
field min 0
field max 1
attr source  packetErrorRate
attr title  "Packet error rate, histogram"
bin	-INF	0
bin	-1	0
bin	0	523228
bin	1	174283
bin	2	0
statistic scenarioPRJP1.node[6].wlan.radio 	minSNIR:histogram
field count 697511
field mean 36051.436999008
field stddev 796517.93374653
field sum 25146273872.615
field sqrsum 4.4343537481541e+17
field min 4.7240921627085e-06
field max 164766792.50175
attr source  minSNIR
attr title  "Min SNIR, histogram"
bin	-INF	0
bin	-429832.35746801	0
bin	-372521.21444876	0
bin	-315210.07142951	0
bin	-257898.92841026	0
bin	-200587.78539101	0
bin	-143276.64237176	0
bin	-85965.499352504	0
bin	-28654.356333253	684563
bin	28656.786685998	5004
bin	85967.929705249	1368
bin	143279.0727245	781
bin	200590.21574375	500
bin	257901.358763	356
bin	315212.50178225	306
bin	372523.6448015	250
bin	429834.78782076	236
bin	487145.93084001	188
bin	544457.07385926	147
bin	601768.21687851	139
bin	659079.35989776	120
bin	716390.50291701	128
bin	773701.64593626	106
bin	831012.78895551	111
bin	888323.93197477	87
bin	945635.07499402	81
bin	1002946.2180133	68
bin	1060257.3610325	73
bin	1117568.5040518	66
bin	1174879.647071	72
bin	1232190.7900903	55
bin	1289501.9331095	2706
scalar scenarioPRJP1.node[6].lo0.lo 	droppedPkBitError:count 	0
attr interpolationmode  none
attr source  dropPkBitError
attr title  "packets dropped/bit error, count"
scalar scenarioPRJP1.node[6].lo0.lo 	droppedPkBitError:sum(packetBytes) 	0
attr interpolationmode  none
attr source  dropPkBitError
attr title  "packets dropped/bit error, sum(packetBytes)"
scalar scenarioPRJP1.node[6].lo0.lo 	rcvdPkFromHL:count 	0
attr interpolationmode  none
attr source  packetReceivedFromUpper
attr title  "packets received from higher layer, count"
scalar scenarioPRJP1.node[6].lo0.lo 	rcvdPkFromHL:sum(packetBytes) 	0
attr interpolationmode  none
attr source  packetReceivedFromUpper
attr title  "packets received from higher layer, sum(packetBytes)"
scalar scenarioPRJP1.node[6].lo0.lo 	passedUpPk:count 	0
attr interpolationmode  none
attr source  packetSentToUpper
attr title  "packets passed to higher layer, count"
scalar scenarioPRJP1.node[6].lo0.lo 	passedUpPk:sum(packetBytes) 	0
attr interpolationmode  none
attr source  packetSentToUpper
attr title  "packets passed to higher layer, sum(packetBytes)"
scalar scenarioPRJP1.radioMedium.propagation 	"Arrival computation count" 	26754591
scalar scenarioPRJP1.radioMedium 	"transmission count" 	1114821
scalar scenarioPRJP1.radioMedium 	"radio frame send count" 	26754591
scalar scenarioPRJP1.radioMedium 	"reception computation count" 	26662347
scalar scenarioPRJP1.radioMedium 	"interference computation count" 	70582134
scalar scenarioPRJP1.radioMedium 	"reception decision computation count" 	17785659
scalar scenarioPRJP1.radioMedium 	"listening decision computation count" 	26534749
scalar scenarioPRJP1.radioMedium 	"reception cache hit" 	80.349296836871
attr unit  %
scalar scenarioPRJP1.radioMedium 	"interference cache hit" 	50
attr unit  %
scalar scenarioPRJP1.radioMedium 	"noise cache hit" 	0
attr unit  %
scalar scenarioPRJP1.radioMedium 	"snir cache hit" 	0
attr unit  %
scalar scenarioPRJP1.radioMedium 	"reception decision cache hit" 	0
attr unit  %
scalar scenarioPRJP1.node[0].app 	"Total sent" 	5021
scalar scenarioPRJP1.node[0].app 	"Total received" 	4418
scalar scenarioPRJP1.node[0].app 	"Total deleted" 	0
scalar scenarioPRJP1.node[0].app 	dropPk:count 	0
attr interpolationmode  none
attr source  dropPk
attr title  "packets dropped, count"
scalar scenarioPRJP1.node[0].app 	dropPk:sum(packetBytes) 	0
attr interpolationmode  none
attr source  dropPk
attr title  "packets dropped, sum(packetBytes)"
scalar scenarioPRJP1.node[0].app 	outOfOrderPk:count 	1
attr interpolationmode  none
attr source  outOfOrderPk
attr title  "packets received out of order, count"
scalar scenarioPRJP1.node[0].app 	outOfOrderPk:sum(packetBytes) 	512
attr interpolationmode  none
attr source  outOfOrderPk
attr title  "packets received out of order, sum(packetBytes)"
scalar scenarioPRJP1.node[0].app 	rcvdPk:count 	4418
attr interpolationmode  none
attr source  rcvdPk
attr title  "packets received, count"
scalar scenarioPRJP1.node[0].app 	rcvdPk:sum(packetBytes) 	2262016
attr interpolationmode  none
attr source  rcvdPk
attr title  "packets received, sum(packetBytes)"
statistic scenarioPRJP1.node[0].app 	endToEndDelay:histogram
field count 4418
field mean 0.084834490478033
field stddev 0.24973980947184
field sum 374.79877893195
field sqrsum 307.28403168802
field min 0.000877426916
field max 2.872533048323
attr interpolationmode  none
attr source  messageAge(rcvdPk)
attr title  "delay, histogram"
attr unit  s
bin	-INF	0
bin	-1.313856576818	0
bin	-1.1385433803033	0
bin	-0.96323018378867	0
bin	-0.787916987274	0
bin	-0.61260379075933	0
bin	-0.43729059424467	0
bin	-0.26197739773	0
bin	-0.086664201215333	3637
bin	0.088648995299333	670
bin	0.263962191814	15
bin	0.43927538832867	6
bin	0.61458858484333	4
bin	0.789901781358	11
bin	0.96521497787267	21
bin	1.1405281743873	4
bin	1.315841370902	6
bin	1.4911545674167	6
bin	1.6664677639313	2
bin	1.841780960446	5
bin	2.0170941569607	4
bin	2.1924073534753	2
bin	2.36772054999	4
bin	2.5430337465047	20
bin	2.7183469430193	1
bin	2.893660139534	0
bin	3.0689733360487	0
bin	3.2442865325633	0
bin	3.419599729078	0
bin	3.5949129255927	0
bin	3.7702261221073	0
bin	3.945539318622	0
scalar scenarioPRJP1.node[0].app 	sentPk:count 	5021
attr interpolationmode  none
attr source  sentPk
attr title  "packets sent, count"
scalar scenarioPRJP1.node[0].app 	sentPk:sum(packetBytes) 	2570752
attr interpolationmode  none
attr source  sentPk
attr title  "packets sent, sum(packetBytes)"
scalar scenarioPRJP1.node[0].udp 	droppedPkBadChecksum:count 	0
attr interpolationmode  none
attr title  "packets dropped (checksum error), count"
scalar scenarioPRJP1.node[0].udp 	droppedPkWrongPort:count 	2
attr interpolationmode  none
attr title  "packets dropped (wrong port), count"
scalar scenarioPRJP1.node[0].udp 	passedUpPk:count 	4419
attr interpolationmode  none
attr title  "packets passed up, count"
scalar scenarioPRJP1.node[0].udp 	rcvdPk:count 	4421
attr interpolationmode  none
attr source  rcvdPk
attr title  "packets received, count"
scalar scenarioPRJP1.node[0].udp 	rcvdPk:sum(packetBytes) 	2298920
attr interpolationmode  none
attr source  rcvdPk
attr title  "packets received, sum(packetBytes)"
scalar scenarioPRJP1.node[0].udp 	sentPk:count 	5021
attr interpolationmode  none
attr source  sentPk
attr title  "packets sent, count"
scalar scenarioPRJP1.node[0].udp 	sentPk:sum(packetBytes) 	2610920
attr interpolationmode  none
attr source  sentPk
attr title  "packets sent, sum(packetBytes)"
scalar scenarioPRJP1.node[0].networkLayer.arp 	failedARPResolution:count 	5
attr title  "ARP failed resolutions, count"
scalar scenarioPRJP1.node[0].networkLayer.arp 	completedARPResolution:count 	1296
attr title  "ARP completed resolutions, count"
scalar scenarioPRJP1.node[0].networkLayer.arp 	initiatedARPResolution:count 	61
attr title  "ARP initiated resolutions, count"
scalar scenarioPRJP1.node[0].networkLayer.arp 	sentReply:count 	56
attr title  "ARP replies sent, count"
scalar scenarioPRJP1.node[0].networkLayer.arp 	sentReq:count 	111
attr title  "ARP request sent, count"
scalar scenarioPRJP1.node[0].mobility 	startTime 	0.1
scalar scenarioPRJP1.node[0].mobility 	totalTime 	1899.9
scalar scenarioPRJP1.node[0].mobility 	stopTime 	1900
scalar scenarioPRJP1.node[0].mobility 	minSpeed 	2.47541974189e-13
scalar scenarioPRJP1.node[0].mobility 	maxSpeed 	15.613743748567
scalar scenarioPRJP1.node[0].mobility 	totalDistance 	17911.763478959
scalar scenarioPRJP1.node[0].mobility 	totalCO2Emission 	4524.2348091214
scalar scenarioPRJP1.node[0].wlan.mgmt 	dataQueueLen:max 	3
attr interpolationmode  sample-hold
attr title  "data queue length, max"
scalar scenarioPRJP1.node[0].wlan.mgmt 	dataQueueLen:timeavg 	0
attr interpolationmode  sample-hold
attr title  "data queue length, timeavg"
scalar scenarioPRJP1.node[0].wlan.mgmt 	dropPkByQueue:count 	0
attr interpolationmode  none
attr source  dropPkByQueue
attr title  "packets dropped by queue, count"
scalar scenarioPRJP1.node[0].wlan.mgmt 	dropPkByQueue:sum(packetBytes) 	0
attr interpolationmode  none
attr source  dropPkByQueue
attr title  "packets dropped by queue, sum(packetBytes)"
scalar scenarioPRJP1.node[0].wlan.mac 	"number of received packets" 	8919
scalar scenarioPRJP1.node[0].wlan.mac 	"number of collisions" 	198555
scalar scenarioPRJP1.node[0].wlan.mac 	"number of internal collisions" 	0
scalar scenarioPRJP1.node[0].wlan.mac 	"number of retry for AC 0" 	16111
scalar scenarioPRJP1.node[0].wlan.mac 	"number of retry for AC 1" 	1
scalar scenarioPRJP1.node[0].wlan.mac 	"number of retry for AC 2" 	0
scalar scenarioPRJP1.node[0].wlan.mac 	"number of retry for AC 3" 	0
scalar scenarioPRJP1.node[0].wlan.mac 	"sent and received bits" 	47073256
scalar scenarioPRJP1.node[0].wlan.mac 	"sent packet within AC 0" 	8031
scalar scenarioPRJP1.node[0].wlan.mac 	"sent packet within AC 1" 	7
scalar scenarioPRJP1.node[0].wlan.mac 	"sent packet within AC 2" 	0
scalar scenarioPRJP1.node[0].wlan.mac 	"sent packet within AC 3" 	0
scalar scenarioPRJP1.node[0].wlan.mac 	"sent in TXOP " 	0
scalar scenarioPRJP1.node[0].wlan.mac 	"sentWithoutRetry AC 0" 	3652
scalar scenarioPRJP1.node[0].wlan.mac 	"sentWithoutRetry AC 1" 	6
scalar scenarioPRJP1.node[0].wlan.mac 	"sentWithoutRetry AC 2" 	0
scalar scenarioPRJP1.node[0].wlan.mac 	"sentWithoutRetry AC 3" 	0
scalar scenarioPRJP1.node[0].wlan.mac 	"numGivenUp AC 0" 	591
scalar scenarioPRJP1.node[0].wlan.mac 	"numGivenUp AC 1" 	0
scalar scenarioPRJP1.node[0].wlan.mac 	"numGivenUp AC 2" 	0
scalar scenarioPRJP1.node[0].wlan.mac 	"numGivenUp AC 3" 	0
scalar scenarioPRJP1.node[0].wlan.mac 	"numDropped AC 0" 	0
scalar scenarioPRJP1.node[0].wlan.mac 	"numDropped AC 1" 	0
scalar scenarioPRJP1.node[0].wlan.mac 	"numDropped AC 2" 	0
scalar scenarioPRJP1.node[0].wlan.mac 	"numDropped AC 3" 	0
scalar scenarioPRJP1.node[0].wlan.mac 	rcvdPkFromLL:count 	713381
attr interpolationmode  none
attr source  packetReceivedFromLower
attr title  "packets received from lower layer, count"
scalar scenarioPRJP1.node[0].wlan.mac 	rcvdPkFromLL:sum(packetBytes) 	216169787
attr interpolationmode  none
attr source  packetReceivedFromLower
attr title  "packets received from lower layer, sum(packetBytes)"
scalar scenarioPRJP1.node[0].wlan.mac 	sentDownPk:count 	44756
attr interpolationmode  none
attr source  packetSentToLower
attr title  "packets sent to lower layer, count"
scalar scenarioPRJP1.node[0].wlan.mac 	sentDownPk:sum(packetBytes) 	15124883
attr interpolationmode  none
attr source  packetSentToLower
attr title  "packets sent to lower layer, sum(packetBytes)"
scalar scenarioPRJP1.node[0].wlan.mac 	rcvdPkFromHL:count 	19725
attr interpolationmode  none
attr source  packetReceivedFromUpper
attr title  "packets received from higher layer, count"
scalar scenarioPRJP1.node[0].wlan.mac 	rcvdPkFromHL:sum(packetBytes) 	6211421
attr interpolationmode  none
attr source  packetReceivedFromUpper
attr title  "packets received from higher layer, sum(packetBytes)"
scalar scenarioPRJP1.node[0].wlan.mac 	passedUpPk:count 	148972
attr interpolationmode  none
attr source  packetSentToUpper
attr title  "packets passed to higher layer, count"
scalar scenarioPRJP1.node[0].wlan.mac 	passedUpPk:sum(packetBytes) 	25393362
attr interpolationmode  none
attr source  packetSentToUpper
attr title  "packets passed to higher layer, sum(packetBytes)"
statistic scenarioPRJP1.node[0].wlan.radio 	radioChannel:histogram
field count 1
field mean 3
field stddev -nan
field sum 3
field sqrsum 9
field min 3
field max 3
attr interpolationmode  sample-hold
attr source  radioChannelChanged
attr title  "Radio channel, histogram"
bin	-INF	0
bin	2	0
bin	3	1
bin	4	0
scalar scenarioPRJP1.node[0].wlan.radio 	transmissionState:count 	179024
attr interpolationmode  sample-hold
attr source  transmissionStateChanged
attr title  "Radio transmission state, count"
scalar scenarioPRJP1.node[0].wlan.radio 	receptionState:count 	1668211
attr interpolationmode  sample-hold
attr source  receptionStateChanged
attr title  "Radio reception state, count"
scalar scenarioPRJP1.node[0].wlan.radio 	radioMode:count 	89514
attr interpolationmode  sample-hold
attr source  radioModeChanged
attr title  "Radio mode, count"
statistic scenarioPRJP1.node[0].wlan.radio 	symbolErrorRate:histogram
field count 0
field mean -nan
field stddev -nan
field sum 0
field sqrsum 0
field min -nan
field max -nan
attr source  symbolErrorRate
attr title  "Symbol error rate, histogram"
bin	-INF	0
bin	-0.5	0
bin	-0.46666666666667	0
bin	-0.43333333333333	0
bin	-0.4	0
bin	-0.36666666666667	0
bin	-0.33333333333333	0
bin	-0.3	0
bin	-0.26666666666667	0
bin	-0.23333333333333	0
bin	-0.2	0
bin	-0.16666666666667	0
bin	-0.13333333333333	0
bin	-0.1	0
bin	-0.066666666666667	0
bin	-0.033333333333333	0
bin	0	0
bin	0.033333333333333	0
bin	0.066666666666667	0
bin	0.1	0
bin	0.13333333333333	0
bin	0.16666666666667	0
bin	0.2	0
bin	0.23333333333333	0
bin	0.26666666666667	0
bin	0.3	0
bin	0.33333333333333	0
bin	0.36666666666667	0
bin	0.4	0
bin	0.43333333333333	0
bin	0.46666666666667	0
bin	0.5	0
statistic scenarioPRJP1.node[0].wlan.radio 	bitErrorRate:histogram
field count 0
field mean -nan
field stddev -nan
field sum 0
field sqrsum 0
field min -nan
field max -nan
attr source  bitErrorRate
attr title  "Bit error rate, histogram"
bin	-INF	0
bin	-0.5	0
bin	-0.46666666666667	0
bin	-0.43333333333333	0
bin	-0.4	0
bin	-0.36666666666667	0
bin	-0.33333333333333	0
bin	-0.3	0
bin	-0.26666666666667	0
bin	-0.23333333333333	0
bin	-0.2	0
bin	-0.16666666666667	0
bin	-0.13333333333333	0
bin	-0.1	0
bin	-0.066666666666667	0
bin	-0.033333333333333	0
bin	0	0
bin	0.033333333333333	0
bin	0.066666666666667	0
bin	0.1	0
bin	0.13333333333333	0
bin	0.16666666666667	0
bin	0.2	0
bin	0.23333333333333	0
bin	0.26666666666667	0
bin	0.3	0
bin	0.33333333333333	0
bin	0.36666666666667	0
bin	0.4	0
bin	0.43333333333333	0
bin	0.46666666666667	0
bin	0.5	0
statistic scenarioPRJP1.node[0].wlan.radio 	packetErrorRate:histogram
field count 713381
field mean 0.26849024033354
field stddev 0.43878898671421
field sum 191535.83613938
field sqrsum 188776.67374838
field min 0
field max 1
attr source  packetErrorRate
attr title  "Packet error rate, histogram"
bin	-INF	0
bin	-1.3129309600624e-07	0
bin	-1.1378734987207e-07	0
bin	-9.6281603737906e-08	0
bin	-7.8775857603741e-08	0
bin	-6.1270111469576e-08	0
bin	-4.3764365335412e-08	0
bin	-2.6258619201247e-08	0
bin	-8.7528730670824e-09	472650
bin	8.7528730670824e-09	1782
bin	2.6258619201247e-08	787
bin	4.3764365335412e-08	566
bin	6.1270111469576e-08	452
bin	7.8775857603741e-08	338
bin	9.6281603737906e-08	333
bin	1.1378734987207e-07	302
bin	1.3129309600624e-07	224
bin	1.487988421404e-07	191
bin	1.6630458827456e-07	198
bin	1.8381033440873e-07	174
bin	2.0131608054289e-07	151
bin	2.1882182667706e-07	148
bin	2.3632757281122e-07	162
bin	2.5383331894539e-07	146
bin	2.7133906507955e-07	112
bin	2.8884481121372e-07	107
bin	3.0635055734788e-07	117
bin	3.2385630348205e-07	117
bin	3.4136204961621e-07	106
bin	3.5886779575038e-07	87
bin	3.7637354188454e-07	83
bin	3.9387928801871e-07	234048
statistic scenarioPRJP1.node[0].wlan.radio 	minSNIR:histogram
field count 713381
field mean 54110.297246754
field stddev 939292.12811305
field sum 38601257960.187
field sqrsum 6.3148228550882e+17
field min 7.0334561723034e-06
field max 175798010.02378
attr source  minSNIR
attr title  "Min SNIR, histogram"
bin	-INF	0
bin	-3308283.3775981	0
bin	-2867178.3696165	0
bin	-2426073.3616349	0
bin	-1984968.3536534	0
bin	-1543863.3456718	0
bin	-1102758.3376903	0
bin	-661653.32970872	0
bin	-220548.32172716	704128
bin	220556.68625439	2994
bin	661661.69423595	1264
bin	1102766.7022175	759
bin	1543871.7101991	518
bin	1984976.7181806	391
bin	2426081.7261622	320
bin	2867186.7341437	257
bin	3308291.7421253	250
bin	3749396.7501068	190
bin	4190501.7580884	168
bin	4631606.76607	168
bin	5072711.7740515	124
bin	5513816.7820331	110
bin	5954921.7900146	99
bin	6396026.7979962	101
bin	6837131.8059777	87
bin	7278236.8139593	92
bin	7719341.8219409	91
bin	8160446.8299224	67
bin	8601551.837904	80
bin	9042656.8458855	58
bin	9483761.8538671	57
bin	9924866.8618486	1008
scalar scenarioPRJP1.node[0].lo0.lo 	droppedPkBitError:count 	0
attr interpolationmode  none
attr source  dropPkBitError
attr title  "packets dropped/bit error, count"
scalar scenarioPRJP1.node[0].lo0.lo 	droppedPkBitError:sum(packetBytes) 	0
attr interpolationmode  none
attr source  dropPkBitError
attr title  "packets dropped/bit error, sum(packetBytes)"
scalar scenarioPRJP1.node[0].lo0.lo 	rcvdPkFromHL:count 	1
attr interpolationmode  none
attr source  packetReceivedFromUpper
attr title  "packets received from higher layer, count"
scalar scenarioPRJP1.node[0].lo0.lo 	rcvdPkFromHL:sum(packetBytes) 	56
attr interpolationmode  none
attr source  packetReceivedFromUpper
attr title  "packets received from higher layer, sum(packetBytes)"
scalar scenarioPRJP1.node[0].lo0.lo 	passedUpPk:count 	1
attr interpolationmode  none
attr source  packetSentToUpper
attr title  "packets passed to higher layer, count"
scalar scenarioPRJP1.node[0].lo0.lo 	passedUpPk:sum(packetBytes) 	56
attr interpolationmode  none
attr source  packetSentToUpper
attr title  "packets passed to higher layer, sum(packetBytes)"
scalar scenarioPRJP1.node[13].app 	"Total sent" 	5006
scalar scenarioPRJP1.node[13].app 	"Total received" 	4460
scalar scenarioPRJP1.node[13].app 	"Total deleted" 	0
scalar scenarioPRJP1.node[13].app 	dropPk:count 	0
attr interpolationmode  none
attr source  dropPk
attr title  "packets dropped, count"
scalar scenarioPRJP1.node[13].app 	dropPk:sum(packetBytes) 	0
attr interpolationmode  none
attr source  dropPk
attr title  "packets dropped, sum(packetBytes)"
scalar scenarioPRJP1.node[13].app 	outOfOrderPk:count 	0
attr interpolationmode  none
attr source  outOfOrderPk
attr title  "packets received out of order, count"
scalar scenarioPRJP1.node[13].app 	outOfOrderPk:sum(packetBytes) 	0
attr interpolationmode  none
attr source  outOfOrderPk
attr title  "packets received out of order, sum(packetBytes)"
scalar scenarioPRJP1.node[13].app 	rcvdPk:count 	4460
attr interpolationmode  none
attr source  rcvdPk
attr title  "packets received, count"
scalar scenarioPRJP1.node[13].app 	rcvdPk:sum(packetBytes) 	2283520
attr interpolationmode  none
attr source  rcvdPk
attr title  "packets received, sum(packetBytes)"
statistic scenarioPRJP1.node[13].app 	endToEndDelay:histogram
field count 4460
field mean 0.090865735443346
field stddev 0.30621753463551
field sum 405.26118007732
field sqrsum 454.94112218723
field min 0.000884694647
field max 7.592969826218
attr interpolationmode  none
attr source  messageAge(rcvdPk)
attr title  "delay, histogram"
attr unit  s
bin	-INF	0
bin	-0.5526727786655	0
bin	-0.4788182156069	0
bin	-0.4049636525483	0
bin	-0.3311090894897	0
bin	-0.2572545264311	0
bin	-0.1833999633725	0
bin	-0.1095454003139	0
bin	-0.0356908372553	1833
bin	0.0381637258033	2299
bin	0.1120182888619	208
bin	0.1858728519205	2
bin	0.2597274149791	5
bin	0.3335819780377	8
bin	0.4074365410963	0
bin	0.4812911041549	2
bin	0.5551456672135	7
bin	0.6290002302721	2
bin	0.7028547933307	1
bin	0.7767093563893	2
bin	0.8505639194479	2
bin	0.9244184825065	1
bin	0.9982730455651	14
bin	1.0721276086237	12
bin	1.1459821716823	0
bin	1.2198367347409	1
bin	1.2936912977995	4
bin	1.3675458608581	0
bin	1.4414004239167	0
bin	1.5152549869753	3
bin	1.5891095500339	1
bin	1.6629641130925	53
scalar scenarioPRJP1.node[13].app 	sentPk:count 	5006
attr interpolationmode  none
attr source  sentPk
attr title  "packets sent, count"
scalar scenarioPRJP1.node[13].app 	sentPk:sum(packetBytes) 	2563072
attr interpolationmode  none
attr source  sentPk
attr title  "packets sent, sum(packetBytes)"
scalar scenarioPRJP1.node[13].udp 	droppedPkBadChecksum:count 	0
attr interpolationmode  none
attr title  "packets dropped (checksum error), count"
scalar scenarioPRJP1.node[13].udp 	droppedPkWrongPort:count 	0
attr interpolationmode  none
attr title  "packets dropped (wrong port), count"
scalar scenarioPRJP1.node[13].udp 	passedUpPk:count 	4460
attr interpolationmode  none
attr title  "packets passed up, count"
scalar scenarioPRJP1.node[13].udp 	rcvdPk:count 	4460
attr interpolationmode  none
attr source  rcvdPk
attr title  "packets received, count"
scalar scenarioPRJP1.node[13].udp 	rcvdPk:sum(packetBytes) 	2319200
attr interpolationmode  none
attr source  rcvdPk
attr title  "packets received, sum(packetBytes)"
scalar scenarioPRJP1.node[13].udp 	sentPk:count 	5006
attr interpolationmode  none
attr source  sentPk
attr title  "packets sent, count"
scalar scenarioPRJP1.node[13].udp 	sentPk:sum(packetBytes) 	2603120
attr interpolationmode  none
attr source  sentPk
attr title  "packets sent, sum(packetBytes)"
scalar scenarioPRJP1.node[13].networkLayer.arp 	failedARPResolution:count 	8
attr title  "ARP failed resolutions, count"
scalar scenarioPRJP1.node[13].networkLayer.arp 	completedARPResolution:count 	1350
attr title  "ARP completed resolutions, count"
scalar scenarioPRJP1.node[13].networkLayer.arp 	initiatedARPResolution:count 	72
attr title  "ARP initiated resolutions, count"
scalar scenarioPRJP1.node[13].networkLayer.arp 	sentReply:count 	57
attr title  "ARP replies sent, count"
scalar scenarioPRJP1.node[13].networkLayer.arp 	sentReq:count 	125
attr title  "ARP request sent, count"
scalar scenarioPRJP1.node[13].mobility 	startTime 	2.5
scalar scenarioPRJP1.node[13].mobility 	totalTime 	1897.5
scalar scenarioPRJP1.node[13].mobility 	stopTime 	1900
scalar scenarioPRJP1.node[13].mobility 	minSpeed 	2.4754171099895e-13
scalar scenarioPRJP1.node[13].mobility 	maxSpeed 	14.554297883977
scalar scenarioPRJP1.node[13].mobility 	totalDistance 	17187.187084443
scalar scenarioPRJP1.node[13].mobility 	totalCO2Emission 	4374.2746338919
scalar scenarioPRJP1.node[13].wlan.mgmt 	dataQueueLen:max 	3
attr interpolationmode  sample-hold
attr title  "data queue length, max"
scalar scenarioPRJP1.node[13].wlan.mgmt 	dataQueueLen:timeavg 	0
attr interpolationmode  sample-hold
attr title  "data queue length, timeavg"
scalar scenarioPRJP1.node[13].wlan.mgmt 	dropPkByQueue:count 	0
attr interpolationmode  none
attr source  dropPkByQueue
attr title  "packets dropped by queue, count"
scalar scenarioPRJP1.node[13].wlan.mgmt 	dropPkByQueue:sum(packetBytes) 	0
attr interpolationmode  none
attr source  dropPkByQueue
attr title  "packets dropped by queue, sum(packetBytes)"
scalar scenarioPRJP1.node[13].wlan.mac 	"number of received packets" 	8892
scalar scenarioPRJP1.node[13].wlan.mac 	"number of collisions" 	199431
scalar scenarioPRJP1.node[13].wlan.mac 	"number of internal collisions" 	0
scalar scenarioPRJP1.node[13].wlan.mac 	"number of retry for AC 0" 	16157
scalar scenarioPRJP1.node[13].wlan.mac 	"number of retry for AC 1" 	1
scalar scenarioPRJP1.node[13].wlan.mac 	"number of retry for AC 2" 	0
scalar scenarioPRJP1.node[13].wlan.mac 	"number of retry for AC 3" 	0
scalar scenarioPRJP1.node[13].wlan.mac 	"sent and received bits" 	47049784
scalar scenarioPRJP1.node[13].wlan.mac 	"sent packet within AC 0" 	8016
scalar scenarioPRJP1.node[13].wlan.mac 	"sent packet within AC 1" 	4
scalar scenarioPRJP1.node[13].wlan.mac 	"sent packet within AC 2" 	0
scalar scenarioPRJP1.node[13].wlan.mac 	"sent packet within AC 3" 	0
scalar scenarioPRJP1.node[13].wlan.mac 	"sent in TXOP " 	0
scalar scenarioPRJP1.node[13].wlan.mac 	"sentWithoutRetry AC 0" 	3641
scalar scenarioPRJP1.node[13].wlan.mac 	"sentWithoutRetry AC 1" 	3
scalar scenarioPRJP1.node[13].wlan.mac 	"sentWithoutRetry AC 2" 	0
scalar scenarioPRJP1.node[13].wlan.mac 	"sentWithoutRetry AC 3" 	0
scalar scenarioPRJP1.node[13].wlan.mac 	"numGivenUp AC 0" 	611
scalar scenarioPRJP1.node[13].wlan.mac 	"numGivenUp AC 1" 	0
scalar scenarioPRJP1.node[13].wlan.mac 	"numGivenUp AC 2" 	0
scalar scenarioPRJP1.node[13].wlan.mac 	"numGivenUp AC 3" 	0
scalar scenarioPRJP1.node[13].wlan.mac 	"numDropped AC 0" 	0
scalar scenarioPRJP1.node[13].wlan.mac 	"numDropped AC 1" 	0
scalar scenarioPRJP1.node[13].wlan.mac 	"numDropped AC 2" 	0
scalar scenarioPRJP1.node[13].wlan.mac 	"numDropped AC 3" 	0
scalar scenarioPRJP1.node[13].wlan.mac 	rcvdPkFromLL:count 	712017
attr interpolationmode  none
attr source  packetReceivedFromLower
attr title  "packets received from lower layer, count"
scalar scenarioPRJP1.node[13].wlan.mac 	rcvdPkFromLL:sum(packetBytes) 	215876314
attr interpolationmode  none
attr source  packetReceivedFromLower
attr title  "packets received from lower layer, sum(packetBytes)"
scalar scenarioPRJP1.node[13].wlan.mac 	sentDownPk:count 	44795
attr interpolationmode  none
attr source  packetSentToLower
attr title  "packets sent to lower layer, count"
scalar scenarioPRJP1.node[13].wlan.mac 	sentDownPk:sum(packetBytes) 	15177674
attr interpolationmode  none
attr source  packetSentToLower
attr title  "packets sent to lower layer, sum(packetBytes)"
scalar scenarioPRJP1.node[13].wlan.mac 	rcvdPkFromHL:count 	19745
attr interpolationmode  none
attr source  packetReceivedFromUpper
attr title  "packets received from higher layer, count"
scalar scenarioPRJP1.node[13].wlan.mac 	rcvdPkFromHL:sum(packetBytes) 	6219088
attr interpolationmode  none
attr source  packetReceivedFromUpper
attr title  "packets received from higher layer, sum(packetBytes)"
scalar scenarioPRJP1.node[13].wlan.mac 	passedUpPk:count 	148226
attr interpolationmode  none
attr source  packetSentToUpper
attr title  "packets passed to higher layer, count"
scalar scenarioPRJP1.node[13].wlan.mac 	passedUpPk:sum(packetBytes) 	25266332
attr interpolationmode  none
attr source  packetSentToUpper
attr title  "packets passed to higher layer, sum(packetBytes)"
statistic scenarioPRJP1.node[13].wlan.radio 	radioChannel:histogram
field count 1
field mean 3
field stddev -nan
field sum 3
field sqrsum 9
field min 3
field max 3
attr interpolationmode  sample-hold
attr source  radioChannelChanged
attr title  "Radio channel, histogram"
bin	-INF	0
bin	2	0
bin	3	1
bin	4	0
scalar scenarioPRJP1.node[13].wlan.radio 	transmissionState:count 	179180
attr interpolationmode  sample-hold
attr source  transmissionStateChanged
attr title  "Radio transmission state, count"
scalar scenarioPRJP1.node[13].wlan.radio 	receptionState:count 	1664494
attr interpolationmode  sample-hold
attr source  receptionStateChanged
attr title  "Radio reception state, count"
scalar scenarioPRJP1.node[13].wlan.radio 	radioMode:count 	89592
attr interpolationmode  sample-hold
attr source  radioModeChanged
attr title  "Radio mode, count"
statistic scenarioPRJP1.node[13].wlan.radio 	symbolErrorRate:histogram
field count 0
field mean -nan
field stddev -nan
field sum 0
field sqrsum 0
field min -nan
field max -nan
attr source  symbolErrorRate
attr title  "Symbol error rate, histogram"
bin	-INF	0
bin	-0.5	0
bin	-0.46666666666667	0
bin	-0.43333333333333	0
bin	-0.4	0
bin	-0.36666666666667	0
bin	-0.33333333333333	0
bin	-0.3	0
bin	-0.26666666666667	0
bin	-0.23333333333333	0
bin	-0.2	0
bin	-0.16666666666667	0
bin	-0.13333333333333	0
bin	-0.1	0
bin	-0.066666666666667	0
bin	-0.033333333333333	0
bin	0	0
bin	0.033333333333333	0
bin	0.066666666666667	0
bin	0.1	0
bin	0.13333333333333	0
bin	0.16666666666667	0
bin	0.2	0
bin	0.23333333333333	0
bin	0.26666666666667	0
bin	0.3	0
bin	0.33333333333333	0
bin	0.36666666666667	0
bin	0.4	0
bin	0.43333333333333	0
bin	0.46666666666667	0
bin	0.5	0
statistic scenarioPRJP1.node[13].wlan.radio 	bitErrorRate:histogram
field count 0
field mean -nan
field stddev -nan
field sum 0
field sqrsum 0
field min -nan
field max -nan
attr source  bitErrorRate
attr title  "Bit error rate, histogram"
bin	-INF	0
bin	-0.5	0
bin	-0.46666666666667	0
bin	-0.43333333333333	0
bin	-0.4	0
bin	-0.36666666666667	0
bin	-0.33333333333333	0
bin	-0.3	0
bin	-0.26666666666667	0
bin	-0.23333333333333	0
bin	-0.2	0
bin	-0.16666666666667	0
bin	-0.13333333333333	0
bin	-0.1	0
bin	-0.066666666666667	0
bin	-0.033333333333333	0
bin	0	0
bin	0.033333333333333	0
bin	0.066666666666667	0
bin	0.1	0
bin	0.13333333333333	0
bin	0.16666666666667	0
bin	0.2	0
bin	0.23333333333333	0
bin	0.26666666666667	0
bin	0.3	0
bin	0.33333333333333	0
bin	0.36666666666667	0
bin	0.4	0
bin	0.43333333333333	0
bin	0.46666666666667	0
bin	0.5	0
statistic scenarioPRJP1.node[13].wlan.radio 	packetErrorRate:histogram
field count 712017
field mean 0.27067841107981
field stddev 0.43999017694236
field sum 192727.63022181
field sqrsum 190007.35151502
field min 0
field max 1
attr source  packetErrorRate
attr title  "Packet error rate, histogram"
bin	-INF	0
bin	-0.5	0
bin	-0.43333333333333	0
bin	-0.36666666666667	0
bin	-0.3	0
bin	-0.23333333333333	0
bin	-0.16666666666667	0
bin	-0.1	0
bin	-0.033333333333333	508487
bin	0.033333333333333	4153
bin	0.1	2212
bin	0.16666666666667	1412
bin	0.23333333333333	1173
bin	0.3	982
bin	0.36666666666667	904
bin	0.43333333333333	786
bin	0.5	705
bin	0.56666666666667	673
bin	0.63333333333333	749
bin	0.7	805
bin	0.76666666666667	825
bin	0.83333333333333	1017
bin	0.9	1603
bin	0.96666666666667	185531
bin	1.0333333333333	0
bin	1.1	0
bin	1.1666666666667	0
bin	1.2333333333333	0
bin	1.3	0
bin	1.3666666666667	0
bin	1.4333333333333	0
bin	1.5	0
statistic scenarioPRJP1.node[13].wlan.radio 	minSNIR:histogram
field count 712017
field mean 52552.655742399
field stddev 925224.64064702
field sum 37418384283.735
field sqrsum 6.1148106470808e+17
field min 6.2974445134067e-06
field max 125000497.28963
attr source  minSNIR
attr title  "Min SNIR, histogram"
bin	-INF	0
bin	-644757.94727411	0
bin	-558790.18815143	0
bin	-472822.42902874	0
bin	-386854.66990605	0
bin	-300886.91078336	0
bin	-214919.15166068	0
bin	-128951.39253799	0
bin	-42983.633415303	694999
bin	42984.125707384	4918
bin	128951.88483007	1857
bin	214919.64395276	1269
bin	300887.40307545	893
bin	386855.16219813	709
bin	472822.92132082	555
bin	558790.68044351	473
bin	644758.43956619	372
bin	730726.19868888	329
bin	816693.95781157	264
bin	902661.71693426	233
bin	988629.47605694	198
bin	1074597.2351796	188
bin	1160564.9943023	167
bin	1246532.753425	161
bin	1332500.5125477	145
bin	1418468.2716704	129
bin	1504436.0307931	120
bin	1590403.7899158	108
bin	1676371.5490384	88
bin	1762339.3081611	114
bin	1848307.0672838	81
bin	1934274.8264065	3647
scalar scenarioPRJP1.node[13].lo0.lo 	droppedPkBitError:count 	0
attr interpolationmode  none
attr source  dropPkBitError
attr title  "packets dropped/bit error, count"
scalar scenarioPRJP1.node[13].lo0.lo 	droppedPkBitError:sum(packetBytes) 	0
attr interpolationmode  none
attr source  dropPkBitError
attr title  "packets dropped/bit error, sum(packetBytes)"
scalar scenarioPRJP1.node[13].lo0.lo 	rcvdPkFromHL:count 	0
attr interpolationmode  none
attr source  packetReceivedFromUpper
attr title  "packets received from higher layer, count"
scalar scenarioPRJP1.node[13].lo0.lo 	rcvdPkFromHL:sum(packetBytes) 	0
attr interpolationmode  none
attr source  packetReceivedFromUpper
attr title  "packets received from higher layer, sum(packetBytes)"
scalar scenarioPRJP1.node[13].lo0.lo 	passedUpPk:count 	0
attr interpolationmode  none
attr source  packetSentToUpper
attr title  "packets passed to higher layer, count"
scalar scenarioPRJP1.node[13].lo0.lo 	passedUpPk:sum(packetBytes) 	0
attr interpolationmode  none
attr source  packetSentToUpper
attr title  "packets passed to higher layer, sum(packetBytes)"
scalar scenarioPRJP1.node[1].app 	"Total sent" 	5017
scalar scenarioPRJP1.node[1].app 	"Total received" 	4462
scalar scenarioPRJP1.node[1].app 	"Total deleted" 	0
scalar scenarioPRJP1.node[1].app 	dropPk:count 	0
attr interpolationmode  none
attr source  dropPk
attr title  "packets dropped, count"
scalar scenarioPRJP1.node[1].app 	dropPk:sum(packetBytes) 	0
attr interpolationmode  none
attr source  dropPk
attr title  "packets dropped, sum(packetBytes)"
scalar scenarioPRJP1.node[1].app 	outOfOrderPk:count 	0
attr interpolationmode  none
attr source  outOfOrderPk
attr title  "packets received out of order, count"
scalar scenarioPRJP1.node[1].app 	outOfOrderPk:sum(packetBytes) 	0
attr interpolationmode  none
attr source  outOfOrderPk
attr title  "packets received out of order, sum(packetBytes)"
scalar scenarioPRJP1.node[1].app 	rcvdPk:count 	4462
attr interpolationmode  none
attr source  rcvdPk
attr title  "packets received, count"
scalar scenarioPRJP1.node[1].app 	rcvdPk:sum(packetBytes) 	2284544
attr interpolationmode  none
attr source  rcvdPk
attr title  "packets received, sum(packetBytes)"
statistic scenarioPRJP1.node[1].app 	endToEndDelay:histogram
field count 4462
field mean 0.084633113440038
field stddev 0.27768073309832
field sum 377.63295216945
field sqrsum 375.93274839092
field min 0.000876436548
field max 5.338023722039
attr interpolationmode  none
attr source  messageAge(rcvdPk)
attr title  "delay, histogram"
attr unit  s
bin	-INF	0
bin	-1.26708150722	0
bin	-1.0980135376488	0
bin	-0.9289455680776	0
bin	-0.7598775985064	0
bin	-0.5908096289352	0
bin	-0.421741659364	0
bin	-0.2526736897928	0
bin	-0.0836057202216	3670
bin	0.0854622493496	697
bin	0.2545302189208	6
bin	0.423598188492	3
bin	0.5926661580632	4
bin	0.7617341276344	9
bin	0.9308020972056	16
bin	1.0998700667768	6
bin	1.268938036348	4
bin	1.4380060059192	3
bin	1.6070739754904	3
bin	1.7761419450616	1
bin	1.9452099146328	5
bin	2.114277884204	1
bin	2.2833458537752	2
bin	2.4524138233464	21
bin	2.6214817929176	7
bin	2.7905497624888	1
bin	2.95961773206	0
bin	3.1286857016312	0
bin	3.2977536712024	0
bin	3.4668216407736	0
bin	3.6358896103448	0
bin	3.804957579916	3
scalar scenarioPRJP1.node[1].app 	sentPk:count 	5017
attr interpolationmode  none
attr source  sentPk
attr title  "packets sent, count"
scalar scenarioPRJP1.node[1].app 	sentPk:sum(packetBytes) 	2568704
attr interpolationmode  none
attr source  sentPk
attr title  "packets sent, sum(packetBytes)"
scalar scenarioPRJP1.node[1].udp 	droppedPkBadChecksum:count 	0
attr interpolationmode  none
attr title  "packets dropped (checksum error), count"
scalar scenarioPRJP1.node[1].udp 	droppedPkWrongPort:count 	0
attr interpolationmode  none
attr title  "packets dropped (wrong port), count"
scalar scenarioPRJP1.node[1].udp 	passedUpPk:count 	4462
attr interpolationmode  none
attr title  "packets passed up, count"
scalar scenarioPRJP1.node[1].udp 	rcvdPk:count 	4462
attr interpolationmode  none
attr source  rcvdPk
attr title  "packets received, count"
scalar scenarioPRJP1.node[1].udp 	rcvdPk:sum(packetBytes) 	2320240
attr interpolationmode  none
attr source  rcvdPk
attr title  "packets received, sum(packetBytes)"
scalar scenarioPRJP1.node[1].udp 	sentPk:count 	5017
attr interpolationmode  none
attr source  sentPk
attr title  "packets sent, count"
scalar scenarioPRJP1.node[1].udp 	sentPk:sum(packetBytes) 	2608840
attr interpolationmode  none
attr source  sentPk
attr title  "packets sent, sum(packetBytes)"
scalar scenarioPRJP1.node[1].networkLayer.arp 	failedARPResolution:count 	6
attr title  "ARP failed resolutions, count"
scalar scenarioPRJP1.node[1].networkLayer.arp 	completedARPResolution:count 	1325
attr title  "ARP completed resolutions, count"
scalar scenarioPRJP1.node[1].networkLayer.arp 	initiatedARPResolution:count 	76
attr title  "ARP initiated resolutions, count"
scalar scenarioPRJP1.node[1].networkLayer.arp 	sentReply:count 	20
attr title  "ARP replies sent, count"
scalar scenarioPRJP1.node[1].networkLayer.arp 	sentReq:count 	143
attr title  "ARP request sent, count"
scalar scenarioPRJP1.node[1].mobility 	startTime 	0.1
scalar scenarioPRJP1.node[1].mobility 	totalTime 	1899.9
scalar scenarioPRJP1.node[1].mobility 	stopTime 	1900
scalar scenarioPRJP1.node[1].mobility 	minSpeed 	2.4755618323935e-13
scalar scenarioPRJP1.node[1].mobility 	maxSpeed 	18.904185270081
scalar scenarioPRJP1.node[1].mobility 	totalDistance 	20669.907685693
scalar scenarioPRJP1.node[1].mobility 	totalCO2Emission 	5488.3102342884
scalar scenarioPRJP1.node[1].wlan.mgmt 	dataQueueLen:max 	1
attr interpolationmode  sample-hold
attr title  "data queue length, max"
scalar scenarioPRJP1.node[1].wlan.mgmt 	dataQueueLen:timeavg 	0
attr interpolationmode  sample-hold
attr title  "data queue length, timeavg"
scalar scenarioPRJP1.node[1].wlan.mgmt 	dropPkByQueue:count 	0
attr interpolationmode  none
attr source  dropPkByQueue
attr title  "packets dropped by queue, count"
scalar scenarioPRJP1.node[1].wlan.mgmt 	dropPkByQueue:sum(packetBytes) 	0
attr interpolationmode  none
attr source  dropPkByQueue
attr title  "packets dropped by queue, sum(packetBytes)"
scalar scenarioPRJP1.node[1].wlan.mac 	"number of received packets" 	8695
scalar scenarioPRJP1.node[1].wlan.mac 	"number of collisions" 	202076
scalar scenarioPRJP1.node[1].wlan.mac 	"number of internal collisions" 	0
scalar scenarioPRJP1.node[1].wlan.mac 	"number of retry for AC 0" 	15354
scalar scenarioPRJP1.node[1].wlan.mac 	"number of retry for AC 1" 	0
scalar scenarioPRJP1.node[1].wlan.mac 	"number of retry for AC 2" 	0
scalar scenarioPRJP1.node[1].wlan.mac 	"number of retry for AC 3" 	0
scalar scenarioPRJP1.node[1].wlan.mac 	"sent and received bits" 	46623368
scalar scenarioPRJP1.node[1].wlan.mac 	"sent packet within AC 0" 	7894
scalar scenarioPRJP1.node[1].wlan.mac 	"sent packet within AC 1" 	3
scalar scenarioPRJP1.node[1].wlan.mac 	"sent packet within AC 2" 	0
scalar scenarioPRJP1.node[1].wlan.mac 	"sent packet within AC 3" 	0
scalar scenarioPRJP1.node[1].wlan.mac 	"sent in TXOP " 	0
scalar scenarioPRJP1.node[1].wlan.mac 	"sentWithoutRetry AC 0" 	3636
scalar scenarioPRJP1.node[1].wlan.mac 	"sentWithoutRetry AC 1" 	3
scalar scenarioPRJP1.node[1].wlan.mac 	"sentWithoutRetry AC 2" 	0
scalar scenarioPRJP1.node[1].wlan.mac 	"sentWithoutRetry AC 3" 	0
scalar scenarioPRJP1.node[1].wlan.mac 	"numGivenUp AC 0" 	554
scalar scenarioPRJP1.node[1].wlan.mac 	"numGivenUp AC 1" 	0
scalar scenarioPRJP1.node[1].wlan.mac 	"numGivenUp AC 2" 	0
scalar scenarioPRJP1.node[1].wlan.mac 	"numGivenUp AC 3" 	0
scalar scenarioPRJP1.node[1].wlan.mac 	"numDropped AC 0" 	0
scalar scenarioPRJP1.node[1].wlan.mac 	"numDropped AC 1" 	0
scalar scenarioPRJP1.node[1].wlan.mac 	"numDropped AC 2" 	0
scalar scenarioPRJP1.node[1].wlan.mac 	"numDropped AC 3" 	0
scalar scenarioPRJP1.node[1].wlan.mac 	rcvdPkFromLL:count 	716684
attr interpolationmode  none
attr source  packetReceivedFromLower
attr title  "packets received from lower layer, count"
scalar scenarioPRJP1.node[1].wlan.mac 	rcvdPkFromLL:sum(packetBytes) 	217020401
attr interpolationmode  none
attr source  packetReceivedFromLower
attr title  "packets received from lower layer, sum(packetBytes)"
scalar scenarioPRJP1.node[1].wlan.mac 	sentDownPk:count 	43595
attr interpolationmode  none
attr source  packetSentToLower
attr title  "packets sent to lower layer, count"
scalar scenarioPRJP1.node[1].wlan.mac 	sentDownPk:sum(packetBytes) 	14699257
attr interpolationmode  none
attr source  packetSentToLower
attr title  "packets sent to lower layer, sum(packetBytes)"
scalar scenarioPRJP1.node[1].wlan.mac 	rcvdPkFromHL:count 	19546
attr interpolationmode  none
attr source  packetReceivedFromUpper
attr title  "packets received from higher layer, count"
scalar scenarioPRJP1.node[1].wlan.mac 	rcvdPkFromHL:sum(packetBytes) 	6136856
attr interpolationmode  none
attr source  packetReceivedFromUpper
attr title  "packets received from higher layer, sum(packetBytes)"
scalar scenarioPRJP1.node[1].wlan.mac 	passedUpPk:count 	148295
attr interpolationmode  none
attr source  packetSentToUpper
attr title  "packets passed to higher layer, count"
scalar scenarioPRJP1.node[1].wlan.mac 	passedUpPk:sum(packetBytes) 	25201910
attr interpolationmode  none
attr source  packetSentToUpper
attr title  "packets passed to higher layer, sum(packetBytes)"
statistic scenarioPRJP1.node[1].wlan.radio 	radioChannel:histogram
field count 1
field mean 3
field stddev -nan
field sum 3
field sqrsum 9
field min 3
field max 3
attr interpolationmode  sample-hold
attr source  radioChannelChanged
attr title  "Radio channel, histogram"
bin	-INF	0
bin	2	0
bin	3	1
bin	4	0
scalar scenarioPRJP1.node[1].wlan.radio 	transmissionState:count 	174380
attr interpolationmode  sample-hold
attr source  transmissionStateChanged
attr title  "Radio transmission state, count"
scalar scenarioPRJP1.node[1].wlan.radio 	receptionState:count 	1673564
attr interpolationmode  sample-hold
attr source  receptionStateChanged
attr title  "Radio reception state, count"
scalar scenarioPRJP1.node[1].wlan.radio 	radioMode:count 	87192
attr interpolationmode  sample-hold
attr source  radioModeChanged
attr title  "Radio mode, count"
statistic scenarioPRJP1.node[1].wlan.radio 	symbolErrorRate:histogram
field count 0
field mean -nan
field stddev -nan
field sum 0
field sqrsum 0
field min -nan
field max -nan
attr source  symbolErrorRate
attr title  "Symbol error rate, histogram"
bin	-INF	0
bin	-0.5	0
bin	-0.46666666666667	0
bin	-0.43333333333333	0
bin	-0.4	0
bin	-0.36666666666667	0
bin	-0.33333333333333	0
bin	-0.3	0
bin	-0.26666666666667	0
bin	-0.23333333333333	0
bin	-0.2	0
bin	-0.16666666666667	0
bin	-0.13333333333333	0
bin	-0.1	0
bin	-0.066666666666667	0
bin	-0.033333333333333	0
bin	0	0
bin	0.033333333333333	0
bin	0.066666666666667	0
bin	0.1	0
bin	0.13333333333333	0
bin	0.16666666666667	0
bin	0.2	0
bin	0.23333333333333	0
bin	0.26666666666667	0
bin	0.3	0
bin	0.33333333333333	0
bin	0.36666666666667	0
bin	0.4	0
bin	0.43333333333333	0
bin	0.46666666666667	0
bin	0.5	0
statistic scenarioPRJP1.node[1].wlan.radio 	bitErrorRate:histogram
field count 0
field mean -nan
field stddev -nan
field sum 0
field sqrsum 0
field min -nan
field max -nan
attr source  bitErrorRate
attr title  "Bit error rate, histogram"
bin	-INF	0
bin	-0.5	0
bin	-0.46666666666667	0
bin	-0.43333333333333	0
bin	-0.4	0
bin	-0.36666666666667	0
bin	-0.33333333333333	0
bin	-0.3	0
bin	-0.26666666666667	0
bin	-0.23333333333333	0
bin	-0.2	0
bin	-0.16666666666667	0
bin	-0.13333333333333	0
bin	-0.1	0
bin	-0.066666666666667	0
bin	-0.033333333333333	0
bin	0	0
bin	0.033333333333333	0
bin	0.066666666666667	0
bin	0.1	0
bin	0.13333333333333	0
bin	0.16666666666667	0
bin	0.2	0
bin	0.23333333333333	0
bin	0.26666666666667	0
bin	0.3	0
bin	0.33333333333333	0
bin	0.36666666666667	0
bin	0.4	0
bin	0.43333333333333	0
bin	0.46666666666667	0
bin	0.5	0
statistic scenarioPRJP1.node[1].wlan.radio 	packetErrorRate:histogram
field count 716684
field mean 0.2724338516184
field stddev 0.4408733013575
field sum 195248.98251328
field sqrsum 192493.58232111
field min 0
field max 1
attr source  packetErrorRate
attr title  "Packet error rate, histogram"
bin	-INF	0
bin	-0.5	0
bin	-0.43333333333333	0
bin	-0.36666666666667	0
bin	-0.3	0
bin	-0.23333333333333	0
bin	-0.16666666666667	0
bin	-0.1	0
bin	-0.033333333333333	510417
bin	0.033333333333333	4301
bin	0.1	2198
bin	0.16666666666667	1504
bin	0.23333333333333	1179
bin	0.3	957
bin	0.36666666666667	809
bin	0.43333333333333	826
bin	0.5	750
bin	0.56666666666667	792
bin	0.63333333333333	741
bin	0.7	771
bin	0.76666666666667	864
bin	0.83333333333333	1015
bin	0.9	1558
bin	0.96666666666667	188002
bin	1.0333333333333	0
bin	1.1	0
bin	1.1666666666667	0
bin	1.2333333333333	0
bin	1.3	0
bin	1.3666666666667	0
bin	1.4333333333333	0
bin	1.5	0
statistic scenarioPRJP1.node[1].wlan.radio 	minSNIR:histogram
field count 716684
field mean 53238.914635182
field stddev 853931.04161018
field sum 38155478296.4
field sqrsum 5.2463532689778e+17
field min 6.9560637751743e-06
field max 152877029.50344
attr source  minSNIR
attr title  "Min SNIR, histogram"
bin	-INF	0
bin	-851336.68070848	0
bin	-737825.12325598	0
bin	-624313.56580349	0
bin	-510802.008351	0
bin	-397290.45089851	0
bin	-283778.89344601	0
bin	-170267.33599352	0
bin	-56755.778541028	699893
bin	56755.778911464	4217
bin	170267.33636396	1798
bin	283778.89381645	1295
bin	397290.45126894	920
bin	510802.00872144	764
bin	624313.56617393	591
bin	737825.12362642	490
bin	851336.68107891	408
bin	964848.23853141	365
bin	1078359.7959839	299
bin	1191871.3534364	270
bin	1305382.9108889	240
bin	1418894.4683414	248
bin	1532406.0257939	194
bin	1645917.5832464	215
bin	1759429.1406989	151
bin	1872940.6981513	156
bin	1986452.2556038	152
bin	2099963.8130563	131
bin	2213475.3705088	116
bin	2326986.9279613	134
bin	2440498.4854138	136
bin	2554010.0428663	3501
scalar scenarioPRJP1.node[1].lo0.lo 	droppedPkBitError:count 	0
attr interpolationmode  none
attr source  dropPkBitError
attr title  "packets dropped/bit error, count"
scalar scenarioPRJP1.node[1].lo0.lo 	droppedPkBitError:sum(packetBytes) 	0
attr interpolationmode  none
attr source  dropPkBitError
attr title  "packets dropped/bit error, sum(packetBytes)"
scalar scenarioPRJP1.node[1].lo0.lo 	rcvdPkFromHL:count 	0
attr interpolationmode  none
attr source  packetReceivedFromUpper
attr title  "packets received from higher layer, count"
scalar scenarioPRJP1.node[1].lo0.lo 	rcvdPkFromHL:sum(packetBytes) 	0
attr interpolationmode  none
attr source  packetReceivedFromUpper
attr title  "packets received from higher layer, sum(packetBytes)"
scalar scenarioPRJP1.node[1].lo0.lo 	passedUpPk:count 	0
attr interpolationmode  none
attr source  packetSentToUpper
attr title  "packets passed to higher layer, count"
scalar scenarioPRJP1.node[1].lo0.lo 	passedUpPk:sum(packetBytes) 	0
attr interpolationmode  none
attr source  packetSentToUpper
attr title  "packets passed to higher layer, sum(packetBytes)"
scalar scenarioPRJP1.node[14].app 	"Total sent" 	5009
scalar scenarioPRJP1.node[14].app 	"Total received" 	4403
scalar scenarioPRJP1.node[14].app 	"Total deleted" 	0
scalar scenarioPRJP1.node[14].app 	dropPk:count 	0
attr interpolationmode  none
attr source  dropPk
attr title  "packets dropped, count"
scalar scenarioPRJP1.node[14].app 	dropPk:sum(packetBytes) 	0
attr interpolationmode  none
attr source  dropPk
attr title  "packets dropped, sum(packetBytes)"
scalar scenarioPRJP1.node[14].app 	outOfOrderPk:count 	0
attr interpolationmode  none
attr source  outOfOrderPk
attr title  "packets received out of order, count"
scalar scenarioPRJP1.node[14].app 	outOfOrderPk:sum(packetBytes) 	0
attr interpolationmode  none
attr source  outOfOrderPk
attr title  "packets received out of order, sum(packetBytes)"
scalar scenarioPRJP1.node[14].app 	rcvdPk:count 	4403
attr interpolationmode  none
attr source  rcvdPk
attr title  "packets received, count"
scalar scenarioPRJP1.node[14].app 	rcvdPk:sum(packetBytes) 	2254336
attr interpolationmode  none
attr source  rcvdPk
attr title  "packets received, sum(packetBytes)"
statistic scenarioPRJP1.node[14].app 	endToEndDelay:histogram
field count 4403
field mean 0.099978879996513
field stddev 0.30524094352585
field sum 440.20700862465
field sqrsum 454.15469561614
field min 0.000888886141
field max 4.602181169065
attr interpolationmode  none
attr source  messageAge(rcvdPk)
attr title  "delay, histogram"
attr unit  s
bin	-INF	0
bin	-1.278762802684	0
bin	-1.1081422897427	0
bin	-0.93752177680133	0
bin	-0.76690126386	0
bin	-0.59628075091867	0
bin	-0.42566023797733	0
bin	-0.255039725036	0
bin	-0.084419212094667	3501
bin	0.086201300846667	771
bin	0.256821813788	11
bin	0.42744232672933	3
bin	0.59806283967067	3
bin	0.768683352612	7
bin	0.93930386555333	23
bin	1.1099243784947	7
bin	1.280544891436	8
bin	1.4511654043773	5
bin	1.6217859173187	3
bin	1.79240643026	12
bin	1.9630269432013	16
bin	2.1336474561427	2
bin	2.304267969084	3
bin	2.4748884820253	23
bin	2.6455089949667	1
bin	2.816129507908	0
bin	2.9867500208493	0
bin	3.1573705337907	0
bin	3.327991046732	0
bin	3.4986115596733	2
bin	3.6692320726147	0
bin	3.839852585556	2
scalar scenarioPRJP1.node[14].app 	sentPk:count 	5009
attr interpolationmode  none
attr source  sentPk
attr title  "packets sent, count"
scalar scenarioPRJP1.node[14].app 	sentPk:sum(packetBytes) 	2564608
attr interpolationmode  none
attr source  sentPk
attr title  "packets sent, sum(packetBytes)"
scalar scenarioPRJP1.node[14].udp 	droppedPkBadChecksum:count 	0
attr interpolationmode  none
attr title  "packets dropped (checksum error), count"
scalar scenarioPRJP1.node[14].udp 	droppedPkWrongPort:count 	0
attr interpolationmode  none
attr title  "packets dropped (wrong port), count"
scalar scenarioPRJP1.node[14].udp 	passedUpPk:count 	4403
attr interpolationmode  none
attr title  "packets passed up, count"
scalar scenarioPRJP1.node[14].udp 	rcvdPk:count 	4403
attr interpolationmode  none
attr source  rcvdPk
attr title  "packets received, count"
scalar scenarioPRJP1.node[14].udp 	rcvdPk:sum(packetBytes) 	2289560
attr interpolationmode  none
attr source  rcvdPk
attr title  "packets received, sum(packetBytes)"
scalar scenarioPRJP1.node[14].udp 	sentPk:count 	5009
attr interpolationmode  none
attr source  sentPk
attr title  "packets sent, count"
scalar scenarioPRJP1.node[14].udp 	sentPk:sum(packetBytes) 	2604680
attr interpolationmode  none
attr source  sentPk
attr title  "packets sent, sum(packetBytes)"
scalar scenarioPRJP1.node[14].networkLayer.arp 	failedARPResolution:count 	9
attr title  "ARP failed resolutions, count"
scalar scenarioPRJP1.node[14].networkLayer.arp 	completedARPResolution:count 	1351
attr title  "ARP completed resolutions, count"
scalar scenarioPRJP1.node[14].networkLayer.arp 	initiatedARPResolution:count 	64
attr title  "ARP initiated resolutions, count"
scalar scenarioPRJP1.node[14].networkLayer.arp 	sentReply:count 	88
attr title  "ARP replies sent, count"
scalar scenarioPRJP1.node[14].networkLayer.arp 	sentReq:count 	121
attr title  "ARP request sent, count"
scalar scenarioPRJP1.node[14].mobility 	startTime 	2.5
scalar scenarioPRJP1.node[14].mobility 	totalTime 	1897.5
scalar scenarioPRJP1.node[14].mobility 	stopTime 	1900
scalar scenarioPRJP1.node[14].mobility 	minSpeed 	2.4755060350592e-13
scalar scenarioPRJP1.node[14].mobility 	maxSpeed 	16.315692559757
scalar scenarioPRJP1.node[14].mobility 	totalDistance 	18259.729575846
scalar scenarioPRJP1.node[14].mobility 	totalCO2Emission 	4696.5775076181
scalar scenarioPRJP1.node[14].wlan.mgmt 	dataQueueLen:max 	1
attr interpolationmode  sample-hold
attr title  "data queue length, max"
scalar scenarioPRJP1.node[14].wlan.mgmt 	dataQueueLen:timeavg 	0
attr interpolationmode  sample-hold
attr title  "data queue length, timeavg"
scalar scenarioPRJP1.node[14].wlan.mgmt 	dropPkByQueue:count 	0
attr interpolationmode  none
attr source  dropPkByQueue
attr title  "packets dropped by queue, count"
scalar scenarioPRJP1.node[14].wlan.mgmt 	dropPkByQueue:sum(packetBytes) 	0
attr interpolationmode  none
attr source  dropPkByQueue
attr title  "packets dropped by queue, sum(packetBytes)"
scalar scenarioPRJP1.node[14].wlan.mac 	"number of received packets" 	8627
scalar scenarioPRJP1.node[14].wlan.mac 	"number of collisions" 	203570
scalar scenarioPRJP1.node[14].wlan.mac 	"number of internal collisions" 	0
scalar scenarioPRJP1.node[14].wlan.mac 	"number of retry for AC 0" 	18541
scalar scenarioPRJP1.node[14].wlan.mac 	"number of retry for AC 1" 	0
scalar scenarioPRJP1.node[14].wlan.mac 	"number of retry for AC 2" 	0
scalar scenarioPRJP1.node[14].wlan.mac 	"number of retry for AC 3" 	0
scalar scenarioPRJP1.node[14].wlan.mac 	"sent and received bits" 	44563280
scalar scenarioPRJP1.node[14].wlan.mac 	"sent packet within AC 0" 	7572
scalar scenarioPRJP1.node[14].wlan.mac 	"sent packet within AC 1" 	1
scalar scenarioPRJP1.node[14].wlan.mac 	"sent packet within AC 2" 	0
scalar scenarioPRJP1.node[14].wlan.mac 	"sent packet within AC 3" 	0
scalar scenarioPRJP1.node[14].wlan.mac 	"sent in TXOP " 	0
scalar scenarioPRJP1.node[14].wlan.mac 	"sentWithoutRetry AC 0" 	3244
scalar scenarioPRJP1.node[14].wlan.mac 	"sentWithoutRetry AC 1" 	1
scalar scenarioPRJP1.node[14].wlan.mac 	"sentWithoutRetry AC 2" 	0
scalar scenarioPRJP1.node[14].wlan.mac 	"sentWithoutRetry AC 3" 	0
scalar scenarioPRJP1.node[14].wlan.mac 	"numGivenUp AC 0" 	903
scalar scenarioPRJP1.node[14].wlan.mac 	"numGivenUp AC 1" 	0
scalar scenarioPRJP1.node[14].wlan.mac 	"numGivenUp AC 2" 	0
scalar scenarioPRJP1.node[14].wlan.mac 	"numGivenUp AC 3" 	0
scalar scenarioPRJP1.node[14].wlan.mac 	"numDropped AC 0" 	0
scalar scenarioPRJP1.node[14].wlan.mac 	"numDropped AC 1" 	0
scalar scenarioPRJP1.node[14].wlan.mac 	"numDropped AC 2" 	0
scalar scenarioPRJP1.node[14].wlan.mac 	"numDropped AC 3" 	0
scalar scenarioPRJP1.node[14].wlan.mac 	rcvdPkFromLL:count 	700021
attr interpolationmode  none
attr source  packetReceivedFromLower
attr title  "packets received from lower layer, count"
scalar scenarioPRJP1.node[14].wlan.mac 	rcvdPkFromLL:sum(packetBytes) 	212805884
attr interpolationmode  none
attr source  packetReceivedFromLower
attr title  "packets received from lower layer, sum(packetBytes)"
scalar scenarioPRJP1.node[14].wlan.mac 	sentDownPk:count 	46684
attr interpolationmode  none
attr source  packetSentToLower
attr title  "packets sent to lower layer, count"
scalar scenarioPRJP1.node[14].wlan.mac 	sentDownPk:sum(packetBytes) 	16219933
attr interpolationmode  none
attr source  packetSentToLower
attr title  "packets sent to lower layer, sum(packetBytes)"
scalar scenarioPRJP1.node[14].wlan.mac 	rcvdPkFromHL:count 	19516
attr interpolationmode  none
attr source  packetReceivedFromUpper
attr title  "packets received from higher layer, count"
scalar scenarioPRJP1.node[14].wlan.mac 	rcvdPkFromHL:sum(packetBytes) 	6065257
attr interpolationmode  none
attr source  packetReceivedFromUpper
attr title  "packets received from higher layer, sum(packetBytes)"
scalar scenarioPRJP1.node[14].wlan.mac 	passedUpPk:count 	144017
attr interpolationmode  none
attr source  packetSentToUpper
attr title  "packets passed to higher layer, count"
scalar scenarioPRJP1.node[14].wlan.mac 	passedUpPk:sum(packetBytes) 	24463904
attr interpolationmode  none
attr source  packetSentToUpper
attr title  "packets passed to higher layer, sum(packetBytes)"
statistic scenarioPRJP1.node[14].wlan.radio 	radioChannel:histogram
field count 1
field mean 3
field stddev -nan
field sum 3
field sqrsum 9
field min 3
field max 3
attr interpolationmode  sample-hold
attr source  radioChannelChanged
attr title  "Radio channel, histogram"
bin	-INF	0
bin	2	0
bin	3	1
bin	4	0
scalar scenarioPRJP1.node[14].wlan.radio 	transmissionState:count 	186736
attr interpolationmode  sample-hold
attr source  transmissionStateChanged
attr title  "Radio transmission state, count"
scalar scenarioPRJP1.node[14].wlan.radio 	receptionState:count 	1643761
attr interpolationmode  sample-hold
attr source  receptionStateChanged
attr title  "Radio reception state, count"
scalar scenarioPRJP1.node[14].wlan.radio 	radioMode:count 	93370
attr interpolationmode  sample-hold
attr source  radioModeChanged
attr title  "Radio mode, count"
statistic scenarioPRJP1.node[14].wlan.radio 	symbolErrorRate:histogram
field count 0
field mean -nan
field stddev -nan
field sum 0
field sqrsum 0
field min -nan
field max -nan
attr source  symbolErrorRate
attr title  "Symbol error rate, histogram"
bin	-INF	0
bin	-0.5	0
bin	-0.46666666666667	0
bin	-0.43333333333333	0
bin	-0.4	0
bin	-0.36666666666667	0
bin	-0.33333333333333	0
bin	-0.3	0
bin	-0.26666666666667	0
bin	-0.23333333333333	0
bin	-0.2	0
bin	-0.16666666666667	0
bin	-0.13333333333333	0
bin	-0.1	0
bin	-0.066666666666667	0
bin	-0.033333333333333	0
bin	0	0
bin	0.033333333333333	0
bin	0.066666666666667	0
bin	0.1	0
bin	0.13333333333333	0
bin	0.16666666666667	0
bin	0.2	0
bin	0.23333333333333	0
bin	0.26666666666667	0
bin	0.3	0
bin	0.33333333333333	0
bin	0.36666666666667	0
bin	0.4	0
bin	0.43333333333333	0
bin	0.46666666666667	0
bin	0.5	0
statistic scenarioPRJP1.node[14].wlan.radio 	bitErrorRate:histogram
field count 0
field mean -nan
field stddev -nan
field sum 0
field sqrsum 0
field min -nan
field max -nan
attr source  bitErrorRate
attr title  "Bit error rate, histogram"
bin	-INF	0
bin	-0.5	0
bin	-0.46666666666667	0
bin	-0.43333333333333	0
bin	-0.4	0
bin	-0.36666666666667	0
bin	-0.33333333333333	0
bin	-0.3	0
bin	-0.26666666666667	0
bin	-0.23333333333333	0
bin	-0.2	0
bin	-0.16666666666667	0
bin	-0.13333333333333	0
bin	-0.1	0
bin	-0.066666666666667	0
bin	-0.033333333333333	0
bin	0	0
bin	0.033333333333333	0
bin	0.066666666666667	0
bin	0.1	0
bin	0.13333333333333	0
bin	0.16666666666667	0
bin	0.2	0
bin	0.23333333333333	0
bin	0.26666666666667	0
bin	0.3	0
bin	0.33333333333333	0
bin	0.36666666666667	0
bin	0.4	0
bin	0.43333333333333	0
bin	0.46666666666667	0
bin	0.5	0
statistic scenarioPRJP1.node[14].wlan.radio 	packetErrorRate:histogram
field count 700021
field mean 0.28063769055828
field stddev 0.44470512893149
field sum 196452.2767823
field sqrsum 193569.72470271
field min 0
field max 1
attr source  packetErrorRate
attr title  "Packet error rate, histogram"
bin	-INF	0
bin	-1	0
bin	0	520761
bin	1	179260
bin	2	0
statistic scenarioPRJP1.node[14].wlan.radio 	minSNIR:histogram
field count 700021
field mean 13848.205610067
field stddev 282291.53189826
field sum 9694034739.3646
field sqrsum 5.5917795043467e+16
field min 1.2519266925793e-05
field max 61011489.758591
attr source  minSNIR
attr title  "Min SNIR, histogram"
bin	-INF	0
bin	-825609.60312966	0
bin	-715528.24667562	0
bin	-605446.89022157	0
bin	-495365.53376753	0
bin	-385284.17731349	0
bin	-275202.82085945	0
bin	-165121.46440541	0
bin	-55040.107951366	693015
bin	55041.248502676	2132
bin	165122.60495672	777
bin	275203.96141076	574
bin	385285.3178648	376
bin	495366.67431884	333
bin	605448.03077288	244
bin	715529.38722693	224
bin	825610.74368097	202
bin	935692.10013501	177
bin	1045773.4565891	156
bin	1155854.8130431	102
bin	1265936.1694971	117
bin	1376017.5259512	114
bin	1486098.8824052	89
bin	1596180.2388593	79
bin	1706261.5953133	53
bin	1816342.9517673	54
bin	1926424.3082214	64
bin	2036505.6646754	61
bin	2146587.0211295	53
bin	2256668.3775835	57
bin	2366749.7340376	42
bin	2476831.0904916	926
scalar scenarioPRJP1.node[14].lo0.lo 	droppedPkBitError:count 	0
attr interpolationmode  none
attr source  dropPkBitError
attr title  "packets dropped/bit error, count"
scalar scenarioPRJP1.node[14].lo0.lo 	droppedPkBitError:sum(packetBytes) 	0
attr interpolationmode  none
attr source  dropPkBitError
attr title  "packets dropped/bit error, sum(packetBytes)"
scalar scenarioPRJP1.node[14].lo0.lo 	rcvdPkFromHL:count 	0
attr interpolationmode  none
attr source  packetReceivedFromUpper
attr title  "packets received from higher layer, count"
scalar scenarioPRJP1.node[14].lo0.lo 	rcvdPkFromHL:sum(packetBytes) 	0
attr interpolationmode  none
attr source  packetReceivedFromUpper
attr title  "packets received from higher layer, sum(packetBytes)"
scalar scenarioPRJP1.node[14].lo0.lo 	passedUpPk:count 	0
attr interpolationmode  none
attr source  packetSentToUpper
attr title  "packets passed to higher layer, count"
scalar scenarioPRJP1.node[14].lo0.lo 	passedUpPk:sum(packetBytes) 	0
attr interpolationmode  none
attr source  packetSentToUpper
attr title  "packets passed to higher layer, sum(packetBytes)"
scalar scenarioPRJP1.node[2].app 	"Total sent" 	5019
scalar scenarioPRJP1.node[2].app 	"Total received" 	4413
scalar scenarioPRJP1.node[2].app 	"Total deleted" 	0
scalar scenarioPRJP1.node[2].app 	dropPk:count 	0
attr interpolationmode  none
attr source  dropPk
attr title  "packets dropped, count"
scalar scenarioPRJP1.node[2].app 	dropPk:sum(packetBytes) 	0
attr interpolationmode  none
attr source  dropPk
attr title  "packets dropped, sum(packetBytes)"
scalar scenarioPRJP1.node[2].app 	outOfOrderPk:count 	0
attr interpolationmode  none
attr source  outOfOrderPk
attr title  "packets received out of order, count"
scalar scenarioPRJP1.node[2].app 	outOfOrderPk:sum(packetBytes) 	0
attr interpolationmode  none
attr source  outOfOrderPk
attr title  "packets received out of order, sum(packetBytes)"
scalar scenarioPRJP1.node[2].app 	rcvdPk:count 	4413
attr interpolationmode  none
attr source  rcvdPk
attr title  "packets received, count"
scalar scenarioPRJP1.node[2].app 	rcvdPk:sum(packetBytes) 	2259456
attr interpolationmode  none
attr source  rcvdPk
attr title  "packets received, sum(packetBytes)"
statistic scenarioPRJP1.node[2].app 	endToEndDelay:histogram
field count 4413
field mean 0.088982477433369
field stddev 0.31183914178905
field sum 392.67967291346
field sqrsum 463.98059548541
field min 0.000891250491
field max 7.6320035998
attr interpolationmode  none
attr source  messageAge(rcvdPk)
attr title  "delay, histogram"
attr unit  s
bin	-INF	0
bin	-0.912919702119	0
bin	-0.791074216691	0
bin	-0.669228731263	0
bin	-0.547383245835	0
bin	-0.425537760407	0
bin	-0.303692274979	0
bin	-0.181846789551	0
bin	-0.060001304123	2754
bin	0.061844181305	1547
bin	0.183689666733	4
bin	0.305535152161	14
bin	0.427380637589	5
bin	0.549226123017	11
bin	0.671071608445	1
bin	0.792917093873	4
bin	0.914762579301	8
bin	1.036608064729	9
bin	1.158453550157	0
bin	1.280299035585	5
bin	1.402144521013	0
bin	1.523990006441	4
bin	1.645835491869	1
bin	1.767680977297	4
bin	1.889526462725	3
bin	2.011371948153	5
bin	2.133217433581	0
bin	2.255062919009	2
bin	2.376908404437	0
bin	2.498753889865	18
bin	2.620599375293	7
bin	2.742444860721	7
scalar scenarioPRJP1.node[2].app 	sentPk:count 	5019
attr interpolationmode  none
attr source  sentPk
attr title  "packets sent, count"
scalar scenarioPRJP1.node[2].app 	sentPk:sum(packetBytes) 	2569728
attr interpolationmode  none
attr source  sentPk
attr title  "packets sent, sum(packetBytes)"
scalar scenarioPRJP1.node[2].udp 	droppedPkBadChecksum:count 	0
attr interpolationmode  none
attr title  "packets dropped (checksum error), count"
scalar scenarioPRJP1.node[2].udp 	droppedPkWrongPort:count 	0
attr interpolationmode  none
attr title  "packets dropped (wrong port), count"
scalar scenarioPRJP1.node[2].udp 	passedUpPk:count 	4413
attr interpolationmode  none
attr title  "packets passed up, count"
scalar scenarioPRJP1.node[2].udp 	rcvdPk:count 	4413
attr interpolationmode  none
attr source  rcvdPk
attr title  "packets received, count"
scalar scenarioPRJP1.node[2].udp 	rcvdPk:sum(packetBytes) 	2294760
attr interpolationmode  none
attr source  rcvdPk
attr title  "packets received, sum(packetBytes)"
scalar scenarioPRJP1.node[2].udp 	sentPk:count 	5019
attr interpolationmode  none
attr source  sentPk
attr title  "packets sent, count"
scalar scenarioPRJP1.node[2].udp 	sentPk:sum(packetBytes) 	2609880
attr interpolationmode  none
attr source  sentPk
attr title  "packets sent, sum(packetBytes)"
scalar scenarioPRJP1.node[2].networkLayer.arp 	failedARPResolution:count 	6
attr title  "ARP failed resolutions, count"
scalar scenarioPRJP1.node[2].networkLayer.arp 	completedARPResolution:count 	1335
attr title  "ARP completed resolutions, count"
scalar scenarioPRJP1.node[2].networkLayer.arp 	initiatedARPResolution:count 	68
attr title  "ARP initiated resolutions, count"
scalar scenarioPRJP1.node[2].networkLayer.arp 	sentReply:count 	41
attr title  "ARP replies sent, count"
scalar scenarioPRJP1.node[2].networkLayer.arp 	sentReq:count 	126
attr title  "ARP request sent, count"
scalar scenarioPRJP1.node[2].mobility 	startTime 	0.1
scalar scenarioPRJP1.node[2].mobility 	totalTime 	1899.9
scalar scenarioPRJP1.node[2].mobility 	stopTime 	1900
scalar scenarioPRJP1.node[2].mobility 	minSpeed 	2.4755650047614e-13
scalar scenarioPRJP1.node[2].mobility 	maxSpeed 	20.694817593491
scalar scenarioPRJP1.node[2].mobility 	totalDistance 	19876.761503822
scalar scenarioPRJP1.node[2].mobility 	totalCO2Emission 	5937.2909910574
scalar scenarioPRJP1.node[2].wlan.mgmt 	dataQueueLen:max 	1
attr interpolationmode  sample-hold
attr title  "data queue length, max"
scalar scenarioPRJP1.node[2].wlan.mgmt 	dataQueueLen:timeavg 	0
attr interpolationmode  sample-hold
attr title  "data queue length, timeavg"
scalar scenarioPRJP1.node[2].wlan.mgmt 	dropPkByQueue:count 	0
attr interpolationmode  none
attr source  dropPkByQueue
attr title  "packets dropped by queue, count"
scalar scenarioPRJP1.node[2].wlan.mgmt 	dropPkByQueue:sum(packetBytes) 	0
attr interpolationmode  none
attr source  dropPkByQueue
attr title  "packets dropped by queue, sum(packetBytes)"
scalar scenarioPRJP1.node[2].wlan.mac 	"number of received packets" 	8483
scalar scenarioPRJP1.node[2].wlan.mac 	"number of collisions" 	208080
scalar scenarioPRJP1.node[2].wlan.mac 	"number of internal collisions" 	0
scalar scenarioPRJP1.node[2].wlan.mac 	"number of retry for AC 0" 	14869
scalar scenarioPRJP1.node[2].wlan.mac 	"number of retry for AC 1" 	3
scalar scenarioPRJP1.node[2].wlan.mac 	"number of retry for AC 2" 	0
scalar scenarioPRJP1.node[2].wlan.mac 	"number of retry for AC 3" 	0
scalar scenarioPRJP1.node[2].wlan.mac 	"sent and received bits" 	46716016
scalar scenarioPRJP1.node[2].wlan.mac 	"sent packet within AC 0" 	7886
scalar scenarioPRJP1.node[2].wlan.mac 	"sent packet within AC 1" 	6
scalar scenarioPRJP1.node[2].wlan.mac 	"sent packet within AC 2" 	0
scalar scenarioPRJP1.node[2].wlan.mac 	"sent packet within AC 3" 	0
scalar scenarioPRJP1.node[2].wlan.mac 	"sent in TXOP " 	0
scalar scenarioPRJP1.node[2].wlan.mac 	"sentWithoutRetry AC 0" 	3612
scalar scenarioPRJP1.node[2].wlan.mac 	"sentWithoutRetry AC 1" 	4
scalar scenarioPRJP1.node[2].wlan.mac 	"sentWithoutRetry AC 2" 	0
scalar scenarioPRJP1.node[2].wlan.mac 	"sentWithoutRetry AC 3" 	0
scalar scenarioPRJP1.node[2].wlan.mac 	"numGivenUp AC 0" 	479
scalar scenarioPRJP1.node[2].wlan.mac 	"numGivenUp AC 1" 	0
scalar scenarioPRJP1.node[2].wlan.mac 	"numGivenUp AC 2" 	0
scalar scenarioPRJP1.node[2].wlan.mac 	"numGivenUp AC 3" 	0
scalar scenarioPRJP1.node[2].wlan.mac 	"numDropped AC 0" 	0
scalar scenarioPRJP1.node[2].wlan.mac 	"numDropped AC 1" 	0
scalar scenarioPRJP1.node[2].wlan.mac 	"numDropped AC 2" 	0
scalar scenarioPRJP1.node[2].wlan.mac 	"numDropped AC 3" 	0
scalar scenarioPRJP1.node[2].wlan.mac 	rcvdPkFromLL:count 	721110
attr interpolationmode  none
attr source  packetReceivedFromLower
attr title  "packets received from lower layer, count"
scalar scenarioPRJP1.node[2].wlan.mac 	rcvdPkFromLL:sum(packetBytes) 	218337272
attr interpolationmode  none
attr source  packetReceivedFromLower
attr title  "packets received from lower layer, sum(packetBytes)"
scalar scenarioPRJP1.node[2].wlan.mac 	sentDownPk:count 	42864
attr interpolationmode  none
attr source  packetSentToLower
attr title  "packets sent to lower layer, count"
scalar scenarioPRJP1.node[2].wlan.mac 	sentDownPk:sum(packetBytes) 	14406807
attr interpolationmode  none
attr source  packetSentToLower
attr title  "packets sent to lower layer, sum(packetBytes)"
scalar scenarioPRJP1.node[2].wlan.mac 	rcvdPkFromHL:count 	19509
attr interpolationmode  none
attr source  packetReceivedFromUpper
attr title  "packets received from higher layer, count"
scalar scenarioPRJP1.node[2].wlan.mac 	rcvdPkFromHL:sum(packetBytes) 	6107077
attr interpolationmode  none
attr source  packetReceivedFromUpper
attr title  "packets received from higher layer, sum(packetBytes)"
scalar scenarioPRJP1.node[2].wlan.mac 	passedUpPk:count 	148033
attr interpolationmode  none
attr source  packetSentToUpper
attr title  "packets passed to higher layer, count"
scalar scenarioPRJP1.node[2].wlan.mac 	passedUpPk:sum(packetBytes) 	25113610
attr interpolationmode  none
attr source  packetSentToUpper
attr title  "packets passed to higher layer, sum(packetBytes)"
statistic scenarioPRJP1.node[2].wlan.radio 	radioChannel:histogram
field count 1
field mean 3
field stddev -nan
field sum 3
field sqrsum 9
field min 3
field max 3
attr interpolationmode  sample-hold
attr source  radioChannelChanged
attr title  "Radio channel, histogram"
bin	-INF	0
bin	2	0
bin	3	1
bin	4	0
scalar scenarioPRJP1.node[2].wlan.radio 	transmissionState:count 	171456
attr interpolationmode  sample-hold
attr source  transmissionStateChanged
attr title  "Radio transmission state, count"
scalar scenarioPRJP1.node[2].wlan.radio 	receptionState:count 	1681587
attr interpolationmode  sample-hold
attr source  receptionStateChanged
attr title  "Radio reception state, count"
scalar scenarioPRJP1.node[2].wlan.radio 	radioMode:count 	85730
attr interpolationmode  sample-hold
attr source  radioModeChanged
attr title  "Radio mode, count"
[...]
attr interpolationmode  none
attr source  packetSentToLower
attr title  "packets sent to lower layer, sum(packetBytes)"
scalar scenarioPRJP1.node[12].wlan.mac 	rcvdPkFromHL:count 	19590
attr interpolationmode  none
attr source  packetReceivedFromUpper
attr title  "packets received from higher layer, count"
scalar scenarioPRJP1.node[12].wlan.mac 	rcvdPkFromHL:sum(packetBytes) 	6109317
attr interpolationmode  none
attr source  packetReceivedFromUpper
attr title  "packets received from higher layer, sum(packetBytes)"
scalar scenarioPRJP1.node[12].wlan.mac 	passedUpPk:count 	145856
attr interpolationmode  none
attr source  packetSentToUpper
attr title  "packets passed to higher layer, count"
scalar scenarioPRJP1.node[12].wlan.mac 	passedUpPk:sum(packetBytes) 	24780311
attr interpolationmode  none
attr source  packetSentToUpper
attr title  "packets passed to higher layer, sum(packetBytes)"
statistic scenarioPRJP1.node[12].wlan.radio 	radioChannel:histogram
field count 1
field mean 3
field stddev -nan
field sum 3
field sqrsum 9
field min 3
field max 3
attr interpolationmode  sample-hold
attr source  radioChannelChanged
attr title  "Radio channel, histogram"
bin	-INF	0
bin	2	0
bin	3	1
bin	4	0
scalar scenarioPRJP1.node[12].wlan.radio 	transmissionState:count 	177712
attr interpolationmode  sample-hold
attr source  transmissionStateChanged
attr title  "Radio transmission state, count"
scalar scenarioPRJP1.node[12].wlan.radio 	receptionState:count 	1661369
attr interpolationmode  sample-hold
attr source  receptionStateChanged
attr title  "Radio reception state, count"
scalar scenarioPRJP1.node[12].wlan.radio 	radioMode:count 	88858
attr interpolationmode  sample-hold
attr source  radioModeChanged
attr title  "Radio mode, count"
statistic scenarioPRJP1.node[12].wlan.radio 	symbolErrorRate:histogram
field count 0
field mean -nan
field stddev -nan
field sum 0
field sqrsum 0
field min -nan
field max -nan
attr source  symbolErrorRate
attr title  "Symbol error rate, histogram"
bin	-INF	0
bin	-0.5	0
bin	-0.46666666666667	0
bin	-0.43333333333333	0
bin	-0.4	0
bin	-0.36666666666667	0
bin	-0.33333333333333	0
bin	-0.3	0
bin	-0.26666666666667	0
bin	-0.23333333333333	0
bin	-0.2	0
bin	-0.16666666666667	0
bin	-0.13333333333333	0
bin	-0.1	0
bin	-0.066666666666667	0
bin	-0.033333333333333	0
bin	0	0
bin	0.033333333333333	0
bin	0.066666666666667	0
bin	0.1	0
bin	0.13333333333333	0
bin	0.16666666666667	0
bin	0.2	0
bin	0.23333333333333	0
bin	0.26666666666667	0
bin	0.3	0
bin	0.33333333333333	0
bin	0.36666666666667	0
bin	0.4	0
bin	0.43333333333333	0
bin	0.46666666666667	0
bin	0.5	0
statistic scenarioPRJP1.node[12].wlan.radio 	bitErrorRate:histogram
field count 0
field mean -nan
field stddev -nan
field sum 0
field sqrsum 0
field min -nan
field max -nan
attr source  bitErrorRate
attr title  "Bit error rate, histogram"
bin	-INF	0
bin	-0.5	0
bin	-0.46666666666667	0
bin	-0.43333333333333	0
bin	-0.4	0
bin	-0.36666666666667	0
bin	-0.33333333333333	0
bin	-0.3	0
bin	-0.26666666666667	0
bin	-0.23333333333333	0
bin	-0.2	0
bin	-0.16666666666667	0
bin	-0.13333333333333	0
bin	-0.1	0
bin	-0.066666666666667	0
bin	-0.033333333333333	0
bin	0	0
bin	0.033333333333333	0
bin	0.066666666666667	0
bin	0.1	0
bin	0.13333333333333	0
bin	0.16666666666667	0
bin	0.2	0
bin	0.23333333333333	0
bin	0.26666666666667	0
bin	0.3	0
bin	0.33333333333333	0
bin	0.36666666666667	0
bin	0.4	0
bin	0.43333333333333	0
bin	0.46666666666667	0
bin	0.5	0
statistic scenarioPRJP1.node[12].wlan.radio 	packetErrorRate:histogram
field count 709499
field mean 0.27937219524385
field stddev 0.44428447240975
field sum 198214.29315332
field sqrsum 195422.44470469
field min 0
field max 1
attr source  packetErrorRate
attr title  "Packet error rate, histogram"
bin	-INF	0
bin	-0.5	0
bin	-0.43333333333333	0
bin	-0.36666666666667	0
bin	-0.3	0
bin	-0.23333333333333	0
bin	-0.16666666666667	0
bin	-0.1	0
bin	-0.033333333333333	500147
bin	0.033333333333333	4403
bin	0.1	2161
bin	0.16666666666667	1473
bin	0.23333333333333	1185
bin	0.3	991
bin	0.36666666666667	862
bin	0.43333333333333	838
bin	0.5	748
bin	0.56666666666667	750
bin	0.63333333333333	798
bin	0.7	787
bin	0.76666666666667	856
bin	0.83333333333333	1085
bin	0.9	1591
bin	0.96666666666667	190824
bin	1.0333333333333	0
bin	1.1	0
bin	1.1666666666667	0
bin	1.2333333333333	0
bin	1.3	0
bin	1.3666666666667	0
bin	1.4333333333333	0
bin	1.5	0
statistic scenarioPRJP1.node[12].wlan.radio 	minSNIR:histogram
field count 709499
field mean 60966.80667152
field stddev 1048393.5698286
field sum 43255888366.636
field sqrsum 7.824670554398e+17
field min 5.5023991410584e-06
field max 129558400.34124
attr source  minSNIR
attr title  "Min SNIR, histogram"
bin	-INF	0
bin	-1518925.2450292	0
bin	-1316401.8706105	0
bin	-1113878.4961919	0
bin	-911355.12177329	0
bin	-708831.74735466	0
bin	-506308.37293603	0
bin	-303784.9985174	0
bin	-101261.62409877	697449
bin	101261.75031986	3495
bin	303785.12473849	1535
bin	506308.49915712	965
bin	708831.87357574	706
bin	911355.24799437	456
bin	1113878.622413	344
bin	1316401.9968316	308
bin	1518925.3712503	234
bin	1721448.7456689	212
bin	1923972.1200875	182
bin	2126495.4945061	173
bin	2329018.8689248	147
bin	2531542.2433434	113
bin	2734065.617762	123
bin	2936588.9921807	111
bin	3139112.3665993	89
bin	3341635.7410179	100
bin	3544159.1154366	85
bin	3746682.4898552	89
bin	3949205.8642738	68
bin	4151729.2386924	68
bin	4354252.6131111	73
bin	4556775.9875297	2374
scalar scenarioPRJP1.node[12].lo0.lo 	droppedPkBitError:count 	0
attr interpolationmode  none
attr source  dropPkBitError
attr title  "packets dropped/bit error, count"
scalar scenarioPRJP1.node[12].lo0.lo 	droppedPkBitError:sum(packetBytes) 	0
attr interpolationmode  none
attr source  dropPkBitError
attr title  "packets dropped/bit error, sum(packetBytes)"
scalar scenarioPRJP1.node[12].lo0.lo 	rcvdPkFromHL:count 	0
attr interpolationmode  none
attr source  packetReceivedFromUpper
attr title  "packets received from higher layer, count"
scalar scenarioPRJP1.node[12].lo0.lo 	rcvdPkFromHL:sum(packetBytes) 	0
attr interpolationmode  none
attr source  packetReceivedFromUpper
attr title  "packets received from higher layer, sum(packetBytes)"
scalar scenarioPRJP1.node[12].lo0.lo 	passedUpPk:count 	0
attr interpolationmode  none
attr source  packetSentToUpper
attr title  "packets passed to higher layer, count"
scalar scenarioPRJP1.node[12].lo0.lo 	passedUpPk:sum(packetBytes) 	0
attr interpolationmode  none
attr source  packetSentToUpper
attr title  "packets passed to higher layer, sum(packetBytes)"
scalar scenarioPRJP1.node[24].app 	"Total sent" 	5017
scalar scenarioPRJP1.node[24].app 	"Total received" 	4429
scalar scenarioPRJP1.node[24].app 	"Total deleted" 	0
scalar scenarioPRJP1.node[24].app 	dropPk:count 	0
attr interpolationmode  none
attr source  dropPk
attr title  "packets dropped, count"
scalar scenarioPRJP1.node[24].app 	dropPk:sum(packetBytes) 	0
attr interpolationmode  none
attr source  dropPk
attr title  "packets dropped, sum(packetBytes)"
scalar scenarioPRJP1.node[24].app 	outOfOrderPk:count 	1
attr interpolationmode  none
attr source  outOfOrderPk
attr title  "packets received out of order, count"
scalar scenarioPRJP1.node[24].app 	outOfOrderPk:sum(packetBytes) 	512
attr interpolationmode  none
attr source  outOfOrderPk
attr title  "packets received out of order, sum(packetBytes)"
scalar scenarioPRJP1.node[24].app 	rcvdPk:count 	4429
attr interpolationmode  none
attr source  rcvdPk
attr title  "packets received, count"
scalar scenarioPRJP1.node[24].app 	rcvdPk:sum(packetBytes) 	2267648
attr interpolationmode  none
attr source  rcvdPk
attr title  "packets received, sum(packetBytes)"
statistic scenarioPRJP1.node[24].app 	endToEndDelay:histogram
field count 4429
field mean 0.094294255961064
field stddev 0.29702920131821
field sum 417.62925965155
field sqrsum 430.04630232384
field min 0.00087490535
field max 4.597914519145
attr interpolationmode  none
attr source  messageAge(rcvdPk)
attr title  "delay, histogram"
attr unit  s
bin	-INF	0
bin	-1.656680405585	0
bin	-1.4356707036155	0
bin	-1.2146610016461	0
bin	-0.9936512996766	0
bin	-0.77264159770713	0
bin	-0.55163189573767	0
bin	-0.3306221937682	0
bin	-0.10961249179873	4052
bin	0.11139721017073	252
bin	0.3324069121402	14
bin	0.55341661410967	10
bin	0.77442631607913	12
bin	0.9954360180486	14
bin	1.2164457200181	5
bin	1.4374554219875	11
bin	1.658465123957	6
bin	1.8794748259265	16
bin	2.1004845278959	6
bin	2.3214942298654	11
bin	2.5425039318349	17
bin	2.7635136338043	0
bin	2.9845233357738	0
bin	3.2055330377433	1
bin	3.4265427397127	0
bin	3.6475524416822	0
bin	3.8685621436517	0
bin	4.0895718456211	1
bin	4.3105815475906	0
bin	4.5315912495601	1
bin	4.7526009515295	0
bin	4.973610653499	0
scalar scenarioPRJP1.node[24].app 	sentPk:count 	5017
attr interpolationmode  none
attr source  sentPk
attr title  "packets sent, count"
scalar scenarioPRJP1.node[24].app 	sentPk:sum(packetBytes) 	2568704
attr interpolationmode  none
attr source  sentPk
attr title  "packets sent, sum(packetBytes)"
scalar scenarioPRJP1.node[24].udp 	droppedPkBadChecksum:count 	0
attr interpolationmode  none
attr title  "packets dropped (checksum error), count"
scalar scenarioPRJP1.node[24].udp 	droppedPkWrongPort:count 	0
attr interpolationmode  none
attr title  "packets dropped (wrong port), count"
scalar scenarioPRJP1.node[24].udp 	passedUpPk:count 	4430
attr interpolationmode  none
attr title  "packets passed up, count"
scalar scenarioPRJP1.node[24].udp 	rcvdPk:count 	4430
attr interpolationmode  none
attr source  rcvdPk
attr title  "packets received, count"
scalar scenarioPRJP1.node[24].udp 	rcvdPk:sum(packetBytes) 	2303600
attr interpolationmode  none
attr source  rcvdPk
attr title  "packets received, sum(packetBytes)"
scalar scenarioPRJP1.node[24].udp 	sentPk:count 	5017
attr interpolationmode  none
attr source  sentPk
attr title  "packets sent, count"
scalar scenarioPRJP1.node[24].udp 	sentPk:sum(packetBytes) 	2608840
attr interpolationmode  none
attr source  sentPk
attr title  "packets sent, sum(packetBytes)"
scalar scenarioPRJP1.node[24].networkLayer.arp 	failedARPResolution:count 	3
attr title  "ARP failed resolutions, count"
scalar scenarioPRJP1.node[24].networkLayer.arp 	completedARPResolution:count 	1303
attr title  "ARP completed resolutions, count"
scalar scenarioPRJP1.node[24].networkLayer.arp 	initiatedARPResolution:count 	63
attr title  "ARP initiated resolutions, count"
scalar scenarioPRJP1.node[24].networkLayer.arp 	sentReply:count 	50
attr title  "ARP replies sent, count"
scalar scenarioPRJP1.node[24].networkLayer.arp 	sentReq:count 	113
attr title  "ARP request sent, count"
scalar scenarioPRJP1.node[24].mobility 	startTime 	2.5
scalar scenarioPRJP1.node[24].mobility 	totalTime 	1897.5
scalar scenarioPRJP1.node[24].mobility 	stopTime 	1900
scalar scenarioPRJP1.node[24].mobility 	minSpeed 	2.4762405377835e-13
scalar scenarioPRJP1.node[24].mobility 	maxSpeed 	17.733631369682
scalar scenarioPRJP1.node[24].mobility 	totalDistance 	20365.236433181
scalar scenarioPRJP1.node[24].mobility 	totalCO2Emission 	5223.4582284371
scalar scenarioPRJP1.node[24].wlan.mgmt 	dataQueueLen:max 	2
attr interpolationmode  sample-hold
attr title  "data queue length, max"
scalar scenarioPRJP1.node[24].wlan.mgmt 	dataQueueLen:timeavg 	0
attr interpolationmode  sample-hold
attr title  "data queue length, timeavg"
scalar scenarioPRJP1.node[24].wlan.mgmt 	dropPkByQueue:count 	0
attr interpolationmode  none
attr source  dropPkByQueue
attr title  "packets dropped by queue, count"
scalar scenarioPRJP1.node[24].wlan.mgmt 	dropPkByQueue:sum(packetBytes) 	0
attr interpolationmode  none
attr source  dropPkByQueue
attr title  "packets dropped by queue, sum(packetBytes)"
scalar scenarioPRJP1.node[24].wlan.mac 	"number of received packets" 	8837
scalar scenarioPRJP1.node[24].wlan.mac 	"number of collisions" 	198091
scalar scenarioPRJP1.node[24].wlan.mac 	"number of internal collisions" 	0
scalar scenarioPRJP1.node[24].wlan.mac 	"number of retry for AC 0" 	16333
scalar scenarioPRJP1.node[24].wlan.mac 	"number of retry for AC 1" 	3
scalar scenarioPRJP1.node[24].wlan.mac 	"number of retry for AC 2" 	0
scalar scenarioPRJP1.node[24].wlan.mac 	"number of retry for AC 3" 	0
scalar scenarioPRJP1.node[24].wlan.mac 	"sent and received bits" 	46979040
scalar scenarioPRJP1.node[24].wlan.mac 	"sent packet within AC 0" 	7981
scalar scenarioPRJP1.node[24].wlan.mac 	"sent packet within AC 1" 	3
scalar scenarioPRJP1.node[24].wlan.mac 	"sent packet within AC 2" 	0
scalar scenarioPRJP1.node[24].wlan.mac 	"sent packet within AC 3" 	0
scalar scenarioPRJP1.node[24].wlan.mac 	"sent in TXOP " 	0
scalar scenarioPRJP1.node[24].wlan.mac 	"sentWithoutRetry AC 0" 	3706
scalar scenarioPRJP1.node[24].wlan.mac 	"sentWithoutRetry AC 1" 	1
scalar scenarioPRJP1.node[24].wlan.mac 	"sentWithoutRetry AC 2" 	0
scalar scenarioPRJP1.node[24].wlan.mac 	"sentWithoutRetry AC 3" 	0
scalar scenarioPRJP1.node[24].wlan.mac 	"numGivenUp AC 0" 	648
scalar scenarioPRJP1.node[24].wlan.mac 	"numGivenUp AC 1" 	0
scalar scenarioPRJP1.node[24].wlan.mac 	"numGivenUp AC 2" 	0
scalar scenarioPRJP1.node[24].wlan.mac 	"numGivenUp AC 3" 	0
scalar scenarioPRJP1.node[24].wlan.mac 	"numDropped AC 0" 	0
scalar scenarioPRJP1.node[24].wlan.mac 	"numDropped AC 1" 	0
scalar scenarioPRJP1.node[24].wlan.mac 	"numDropped AC 2" 	0
scalar scenarioPRJP1.node[24].wlan.mac 	"numDropped AC 3" 	0
scalar scenarioPRJP1.node[24].wlan.mac 	rcvdPkFromLL:count 	710588
attr interpolationmode  none
attr source  packetReceivedFromLower
attr title  "packets received from lower layer, count"
scalar scenarioPRJP1.node[24].wlan.mac 	rcvdPkFromLL:sum(packetBytes) 	215612824
attr interpolationmode  none
attr source  packetReceivedFromLower
attr title  "packets received from lower layer, sum(packetBytes)"
scalar scenarioPRJP1.node[24].wlan.mac 	sentDownPk:count 	44928
attr interpolationmode  none
attr source  packetSentToLower
attr title  "packets sent to lower layer, count"
scalar scenarioPRJP1.node[24].wlan.mac 	sentDownPk:sum(packetBytes) 	15305301
attr interpolationmode  none
attr source  packetSentToLower
attr title  "packets sent to lower layer, sum(packetBytes)"
scalar scenarioPRJP1.node[24].wlan.mac 	rcvdPkFromHL:count 	19755
attr interpolationmode  none
attr source  packetReceivedFromUpper
attr title  "packets received from higher layer, count"
scalar scenarioPRJP1.node[24].wlan.mac 	rcvdPkFromHL:sum(packetBytes) 	6234316
attr interpolationmode  none
attr source  packetReceivedFromUpper
attr title  "packets received from higher layer, sum(packetBytes)"
scalar scenarioPRJP1.node[24].wlan.mac 	passedUpPk:count 	148003
attr interpolationmode  none
attr source  packetSentToUpper
attr title  "packets passed to higher layer, count"
scalar scenarioPRJP1.node[24].wlan.mac 	passedUpPk:sum(packetBytes) 	25225831
attr interpolationmode  none
attr source  packetSentToUpper
attr title  "packets passed to higher layer, sum(packetBytes)"
statistic scenarioPRJP1.node[24].wlan.radio 	radioChannel:histogram
field count 1
field mean 3
field stddev -nan
field sum 3
field sqrsum 9
field min 3
field max 3
attr interpolationmode  sample-hold
attr source  radioChannelChanged
attr title  "Radio channel, histogram"
bin	-INF	0
bin	2	0
bin	3	1
bin	4	0
scalar scenarioPRJP1.node[24].wlan.radio 	transmissionState:count 	179712
attr interpolationmode  sample-hold
attr source  transmissionStateChanged
attr title  "Radio transmission state, count"
scalar scenarioPRJP1.node[24].wlan.radio 	receptionState:count 	1662690
attr interpolationmode  sample-hold
attr source  receptionStateChanged
attr title  "Radio reception state, count"
scalar scenarioPRJP1.node[24].wlan.radio 	radioMode:count 	89858
attr interpolationmode  sample-hold
attr source  radioModeChanged
attr title  "Radio mode, count"
statistic scenarioPRJP1.node[24].wlan.radio 	symbolErrorRate:histogram
field count 0
field mean -nan
field stddev -nan
field sum 0
field sqrsum 0
field min -nan
field max -nan
attr source  symbolErrorRate
attr title  "Symbol error rate, histogram"
bin	-INF	0
bin	-0.5	0
bin	-0.46666666666667	0
bin	-0.43333333333333	0
bin	-0.4	0
bin	-0.36666666666667	0
bin	-0.33333333333333	0
bin	-0.3	0
bin	-0.26666666666667	0
bin	-0.23333333333333	0
bin	-0.2	0
bin	-0.16666666666667	0
bin	-0.13333333333333	0
bin	-0.1	0
bin	-0.066666666666667	0
bin	-0.033333333333333	0
bin	0	0
bin	0.033333333333333	0
bin	0.066666666666667	0
bin	0.1	0
bin	0.13333333333333	0
bin	0.16666666666667	0
bin	0.2	0
bin	0.23333333333333	0
bin	0.26666666666667	0
bin	0.3	0
bin	0.33333333333333	0
bin	0.36666666666667	0
bin	0.4	0
bin	0.43333333333333	0
bin	0.46666666666667	0
bin	0.5	0
statistic scenarioPRJP1.node[24].wlan.radio 	bitErrorRate:histogram
field count 0
field mean -nan
field stddev -nan
field sum 0
field sqrsum 0
field min -nan
field max -nan
attr source  bitErrorRate
attr title  "Bit error rate, histogram"
bin	-INF	0
bin	-0.5	0
bin	-0.46666666666667	0
bin	-0.43333333333333	0
bin	-0.4	0
bin	-0.36666666666667	0
bin	-0.33333333333333	0
bin	-0.3	0
bin	-0.26666666666667	0
bin	-0.23333333333333	0
bin	-0.2	0
bin	-0.16666666666667	0
bin	-0.13333333333333	0
bin	-0.1	0
bin	-0.066666666666667	0
bin	-0.033333333333333	0
bin	0	0
bin	0.033333333333333	0
bin	0.066666666666667	0
bin	0.1	0
bin	0.13333333333333	0
bin	0.16666666666667	0
bin	0.2	0
bin	0.23333333333333	0
bin	0.26666666666667	0
bin	0.3	0
bin	0.33333333333333	0
bin	0.36666666666667	0
bin	0.4	0
bin	0.43333333333333	0
bin	0.46666666666667	0
bin	0.5	0
statistic scenarioPRJP1.node[24].wlan.radio 	packetErrorRate:histogram
field count 710588
field mean 0.26935376560841
field stddev 0.43943395831964
field sum 191399.55359615
field sqrsum 188770.10613485
field min 0
field max 1
attr source  packetErrorRate
attr title  "Packet error rate, histogram"
bin	-INF	0
bin	-1	0
bin	0	534955
bin	1	175633
bin	2	0
statistic scenarioPRJP1.node[24].wlan.radio 	minSNIR:histogram
field count 710588
field mean 69011.892184929
field stddev 980287.22410832
field sum 49039022443.905
field sqrsum 6.8623212067776e+17
field min 3.6902785196938e-06
field max 123040446.81966
attr source  minSNIR
attr title  "Min SNIR, histogram"
bin	-INF	0
bin	-545966.72830316	0
bin	-473171.1425594	0
bin	-400375.55681563	0
bin	-327579.97107186	0
bin	-254784.3853281	0
bin	-181988.79958433	0
bin	-109193.21384056	0
bin	-36397.628096796	688112
bin	36397.957646971	6056
bin	109193.54339074	2104
bin	181989.1291345	1318
bin	254784.71487827	1008
bin	327580.30062204	773
bin	400375.88636581	656
bin	473171.47210957	540
bin	545967.05785334	523
bin	618762.64359711	434
bin	691558.22934087	404
bin	764353.81508464	362
bin	837149.40082841	327
bin	909944.98657217	275
bin	982740.57231594	256
bin	1055536.1580597	261
bin	1128331.7438035	221
bin	1201127.3295472	206
bin	1273922.915291	197
bin	1346718.5010348	181
bin	1419514.0867785	176
bin	1492309.6725223	172
bin	1565105.2582661	142
bin	1637900.8440098	5884
scalar scenarioPRJP1.node[24].lo0.lo 	droppedPkBitError:count 	0
attr interpolationmode  none
attr source  dropPkBitError
attr title  "packets dropped/bit error, count"
scalar scenarioPRJP1.node[24].lo0.lo 	droppedPkBitError:sum(packetBytes) 	0
attr interpolationmode  none
attr source  dropPkBitError
attr title  "packets dropped/bit error, sum(packetBytes)"
scalar scenarioPRJP1.node[24].lo0.lo 	rcvdPkFromHL:count 	0
attr interpolationmode  none
attr source  packetReceivedFromUpper
attr title  "packets received from higher layer, count"
scalar scenarioPRJP1.node[24].lo0.lo 	rcvdPkFromHL:sum(packetBytes) 	0
attr interpolationmode  none
attr source  packetReceivedFromUpper
attr title  "packets received from higher layer, sum(packetBytes)"
scalar scenarioPRJP1.node[24].lo0.lo 	passedUpPk:count 	0
attr interpolationmode  none
attr source  packetSentToUpper
attr title  "packets passed to higher layer, count"
scalar scenarioPRJP1.node[24].lo0.lo 	passedUpPk:sum(packetBytes) 	0
attr interpolationmode  none
attr source  packetSentToUpper
attr title  "packets passed to higher layer, sum(packetBytes)"
