version 2
run AODVRouting-TRG-100n-22-20150730-18:09:35-21644
attr configname AODVRouting-TRG-100n
attr datetime 20150730-18:09:35
attr experiment AODVRouting-TRG-100n
attr inifile omnetpp.ini
attr iterationvars ""
attr iterationvars2 $repetition=22
attr measurement ""
attr network Prj_Part1_propag.scenarioPRJP1
attr processid 21644
attr repetition 22
attr replication #22
attr resultdir results
attr runnumber 22
attr seedset 22

scalar scenarioPRJP1.node[55].app 	"Total sent" 	365
scalar scenarioPRJP1.node[55].app 	"Total received" 	31
scalar scenarioPRJP1.node[55].app 	"Total deleted" 	4
scalar scenarioPRJP1.node[55].app 	dropPk:count 	4
attr interpolationmode  none
attr source  dropPk
attr title  "packets dropped, count"
scalar scenarioPRJP1.node[55].app 	dropPk:sum(packetBytes) 	2048
attr interpolationmode  none
attr source  dropPk
attr title  "packets dropped, sum(packetBytes)"
scalar scenarioPRJP1.node[55].app 	outOfOrderPk:count 	0
attr interpolationmode  none
attr source  outOfOrderPk
attr title  "packets received out of order, count"
scalar scenarioPRJP1.node[55].app 	outOfOrderPk:sum(packetBytes) 	0
attr interpolationmode  none
attr source  outOfOrderPk
attr title  "packets received out of order, sum(packetBytes)"
scalar scenarioPRJP1.node[55].app 	rcvdPk:count 	31
attr interpolationmode  none
attr source  rcvdPk
attr title  "packets received, count"
scalar scenarioPRJP1.node[55].app 	rcvdPk:sum(packetBytes) 	15872
attr interpolationmode  none
attr source  rcvdPk
attr title  "packets received, sum(packetBytes)"
statistic scenarioPRJP1.node[55].app 	endToEndDelay:histogram
field count 31
field mean 0.45652089519568
field stddev 1.7459279991884
field sum 14.152147751066
field sqrsum 97.908688510759
field min 0.000958230212
field max 7.08450892551
attr interpolationmode  none
attr source  messageAge(rcvdPk)
attr title  "delay, histogram"
attr unit  s
bin	-INF	0
bin	-3.540817117437	0
bin	-3.0685804044171	0
bin	-2.5963436913973	0
bin	-2.1241069783774	0
bin	-1.6518702653575	0
bin	-1.1796335523377	0
bin	-0.7073968393178	0
bin	-0.23516012629793	29
bin	0.23707658672193	0
bin	0.7093132997418	0
bin	1.1815500127617	0
bin	1.6537867257815	0
bin	2.1260234388014	0
bin	2.5982601518213	0
bin	3.0704968648411	0
bin	3.542733577861	0
bin	4.0149702908809	0
bin	4.4872070039007	0
bin	4.9594437169206	0
bin	5.4316804299405	0
bin	5.9039171429603	0
bin	6.3761538559802	0
bin	6.8483905690001	2
bin	7.3206272820199	0
bin	7.7928639950398	0
bin	8.2651007080597	0
bin	8.7373374210795	0
bin	9.2095741340994	0
bin	9.6818108471193	0
bin	10.154047560139	0
bin	10.626284273159	0
scalar scenarioPRJP1.node[55].app 	sentPk:count 	365
attr interpolationmode  none
attr source  sentPk
attr title  "packets sent, count"
scalar scenarioPRJP1.node[55].app 	sentPk:sum(packetBytes) 	186880
attr interpolationmode  none
attr source  sentPk
attr title  "packets sent, sum(packetBytes)"
scalar scenarioPRJP1.node[55].udp 	droppedPkBadChecksum:count 	0
attr interpolationmode  none
attr title  "packets dropped (checksum error), count"
scalar scenarioPRJP1.node[55].udp 	droppedPkWrongPort:count 	0
attr interpolationmode  none
attr title  "packets dropped (wrong port), count"
scalar scenarioPRJP1.node[55].udp 	passedUpPk:count 	35
attr interpolationmode  none
attr title  "packets passed up, count"
scalar scenarioPRJP1.node[55].udp 	rcvdPk:count 	35
attr interpolationmode  none
attr source  rcvdPk
attr title  "packets received, count"
scalar scenarioPRJP1.node[55].udp 	rcvdPk:sum(packetBytes) 	18200
attr interpolationmode  none
attr source  rcvdPk
attr title  "packets received, sum(packetBytes)"
scalar scenarioPRJP1.node[55].udp 	sentPk:count 	365
attr interpolationmode  none
attr source  sentPk
attr title  "packets sent, count"
scalar scenarioPRJP1.node[55].udp 	sentPk:sum(packetBytes) 	189800
attr interpolationmode  none
attr source  sentPk
attr title  "packets sent, sum(packetBytes)"
scalar scenarioPRJP1.node[55].networkLayer.arp 	failedARPResolution:count 	2
attr title  "ARP failed resolutions, count"
scalar scenarioPRJP1.node[55].networkLayer.arp 	completedARPResolution:count 	105
attr title  "ARP completed resolutions, count"
scalar scenarioPRJP1.node[55].networkLayer.arp 	initiatedARPResolution:count 	9
attr title  "ARP initiated resolutions, count"
scalar scenarioPRJP1.node[55].networkLayer.arp 	sentReply:count 	11
attr title  "ARP replies sent, count"
scalar scenarioPRJP1.node[55].networkLayer.arp 	sentReq:count 	14
attr title  "ARP request sent, count"
scalar scenarioPRJP1.node[55].mobility 	startTime 	4.9
scalar scenarioPRJP1.node[55].mobility 	totalTime 	153.5
scalar scenarioPRJP1.node[55].mobility 	stopTime 	158.5
scalar scenarioPRJP1.node[55].mobility 	minSpeed 	2.4757915182901e-13
scalar scenarioPRJP1.node[55].mobility 	maxSpeed 	19.300752360327
scalar scenarioPRJP1.node[55].mobility 	totalDistance 	1448.6570849221
scalar scenarioPRJP1.node[55].mobility 	totalCO2Emission 	431.11933031395
scalar scenarioPRJP1.node[55].wlan[0].mgmt 	dataQueueLen:max 	2
attr interpolationmode  sample-hold
attr title  "data queue length, max"
scalar scenarioPRJP1.node[55].wlan[0].mgmt 	dataQueueLen:timeavg 	0
attr interpolationmode  sample-hold
attr title  "data queue length, timeavg"
scalar scenarioPRJP1.node[55].wlan[0].mgmt 	dropPkByQueue:count 	0
attr interpolationmode  none
attr source  dropPkByQueue
attr title  "packets dropped by queue, count"
scalar scenarioPRJP1.node[55].wlan[0].mgmt 	dropPkByQueue:sum(packetBytes) 	0
attr interpolationmode  none
attr source  dropPkByQueue
attr title  "packets dropped by queue, sum(packetBytes)"
scalar scenarioPRJP1.node[55].wlan[0].mac 	"number of received packets" 	313
scalar scenarioPRJP1.node[55].wlan[0].mac 	"number of collisions" 	1342
scalar scenarioPRJP1.node[55].wlan[0].mac 	"number of internal collisions" 	0
scalar scenarioPRJP1.node[55].wlan[0].mac 	"number of retry for AC 0" 	482
scalar scenarioPRJP1.node[55].wlan[0].mac 	"number of retry for AC 1" 	0
scalar scenarioPRJP1.node[55].wlan[0].mac 	"number of retry for AC 2" 	0
scalar scenarioPRJP1.node[55].wlan[0].mac 	"number of retry for AC 3" 	0
scalar scenarioPRJP1.node[55].wlan[0].mac 	"sent and received bits" 	1537312
scalar scenarioPRJP1.node[55].wlan[0].mac 	"sent packet within AC 0" 	33
scalar scenarioPRJP1.node[55].wlan[0].mac 	"sent packet within AC 1" 	0
scalar scenarioPRJP1.node[55].wlan[0].mac 	"sent packet within AC 2" 	0
scalar scenarioPRJP1.node[55].wlan[0].mac 	"sent packet within AC 3" 	0
scalar scenarioPRJP1.node[55].wlan[0].mac 	"sent in TXOP " 	0
scalar scenarioPRJP1.node[55].wlan[0].mac 	"sentWithoutRetry AC 0" 	26
scalar scenarioPRJP1.node[55].wlan[0].mac 	"sentWithoutRetry AC 1" 	0
scalar scenarioPRJP1.node[55].wlan[0].mac 	"sentWithoutRetry AC 2" 	0
scalar scenarioPRJP1.node[55].wlan[0].mac 	"sentWithoutRetry AC 3" 	0
scalar scenarioPRJP1.node[55].wlan[0].mac 	"numGivenUp AC 0" 	78
scalar scenarioPRJP1.node[55].wlan[0].mac 	"numGivenUp AC 1" 	0
scalar scenarioPRJP1.node[55].wlan[0].mac 	"numGivenUp AC 2" 	0
scalar scenarioPRJP1.node[55].wlan[0].mac 	"numGivenUp AC 3" 	0
scalar scenarioPRJP1.node[55].wlan[0].mac 	"numDropped AC 0" 	0
scalar scenarioPRJP1.node[55].wlan[0].mac 	"numDropped AC 1" 	0
scalar scenarioPRJP1.node[55].wlan[0].mac 	"numDropped AC 2" 	0
scalar scenarioPRJP1.node[55].wlan[0].mac 	"numDropped AC 3" 	0
scalar scenarioPRJP1.node[55].wlan[0].mac 	rcvdPkFromLL:count 	16925
attr interpolationmode  none
attr source  packetReceivedFromLower
attr title  "packets received from lower layer, count"
scalar scenarioPRJP1.node[55].wlan[0].mac 	rcvdPkFromLL:sum(packetBytes) 	2210838
attr interpolationmode  none
attr source  packetReceivedFromLower
attr title  "packets received from lower layer, sum(packetBytes)"
scalar scenarioPRJP1.node[55].wlan[0].mac 	sentDownPk:count 	2919
attr interpolationmode  none
attr source  packetSentToLower
attr title  "packets sent to lower layer, count"
scalar scenarioPRJP1.node[55].wlan[0].mac 	sentDownPk:sum(packetBytes) 	423974
attr interpolationmode  none
attr source  packetSentToLower
attr title  "packets sent to lower layer, sum(packetBytes)"
scalar scenarioPRJP1.node[55].wlan[0].mac 	rcvdPkFromHL:count 	2124
attr interpolationmode  none
attr source  packetReceivedFromUpper
attr title  "packets received from higher layer, count"
scalar scenarioPRJP1.node[55].wlan[0].mac 	rcvdPkFromHL:sum(packetBytes) 	223648
attr interpolationmode  none
attr source  packetReceivedFromUpper
attr title  "packets received from higher layer, sum(packetBytes)"
scalar scenarioPRJP1.node[55].wlan[0].mac 	passedUpPk:count 	10776
attr interpolationmode  none
attr source  packetSentToUpper
attr title  "packets passed to higher layer, count"
scalar scenarioPRJP1.node[55].wlan[0].mac 	passedUpPk:sum(packetBytes) 	977164
attr interpolationmode  none
attr source  packetSentToUpper
attr title  "packets passed to higher layer, sum(packetBytes)"
statistic scenarioPRJP1.node[55].wlan[0].radio 	radioChannel:histogram
field count 1
field mean 3
field stddev -nan
field sum 3
field sqrsum 9
field min 3
field max 3
attr interpolationmode  sample-hold
attr source  radioChannelChanged
attr title  "Radio channel, histogram"
bin	-INF	0
bin	2	0
bin	3	1
bin	4	0
scalar scenarioPRJP1.node[55].wlan[0].radio 	transmissionState:count 	11676
attr interpolationmode  sample-hold
attr source  transmissionStateChanged
attr title  "Radio transmission state, count"
scalar scenarioPRJP1.node[55].wlan[0].radio 	receptionState:count 	39975
attr interpolationmode  sample-hold
attr source  receptionStateChanged
attr title  "Radio reception state, count"
scalar scenarioPRJP1.node[55].wlan[0].radio 	radioMode:count 	5840
attr interpolationmode  sample-hold
attr source  radioModeChanged
attr title  "Radio mode, count"
statistic scenarioPRJP1.node[55].wlan[0].radio 	symbolErrorRate:histogram
field count 0
field mean -nan
field stddev -nan
field sum 0
field sqrsum 0
field min -nan
field max -nan
attr source  symbolErrorRate
attr title  "Symbol error rate, histogram"
bin	-INF	0
bin	-0.5	0
bin	-0.46666666666667	0
bin	-0.43333333333333	0
bin	-0.4	0
bin	-0.36666666666667	0
bin	-0.33333333333333	0
bin	-0.3	0
bin	-0.26666666666667	0
bin	-0.23333333333333	0
bin	-0.2	0
bin	-0.16666666666667	0
bin	-0.13333333333333	0
bin	-0.1	0
bin	-0.066666666666667	0
bin	-0.033333333333333	0
bin	0	0
bin	0.033333333333333	0
bin	0.066666666666667	0
bin	0.1	0
bin	0.13333333333333	0
bin	0.16666666666667	0
bin	0.2	0
bin	0.23333333333333	0
bin	0.26666666666667	0
bin	0.3	0
bin	0.33333333333333	0
bin	0.36666666666667	0
bin	0.4	0
bin	0.43333333333333	0
bin	0.46666666666667	0
bin	0.5	0
statistic scenarioPRJP1.node[55].wlan[0].radio 	bitErrorRate:histogram
field count 0
field mean -nan
field stddev -nan
field sum 0
field sqrsum 0
field min -nan
field max -nan
attr source  bitErrorRate
attr title  "Bit error rate, histogram"
bin	-INF	0
bin	-0.5	0
bin	-0.46666666666667	0
bin	-0.43333333333333	0
bin	-0.4	0
bin	-0.36666666666667	0
bin	-0.33333333333333	0
bin	-0.3	0
bin	-0.26666666666667	0
bin	-0.23333333333333	0
bin	-0.2	0
bin	-0.16666666666667	0
bin	-0.13333333333333	0
bin	-0.1	0
bin	-0.066666666666667	0
bin	-0.033333333333333	0
bin	0	0
bin	0.033333333333333	0
bin	0.066666666666667	0
bin	0.1	0
bin	0.13333333333333	0
bin	0.16666666666667	0
bin	0.2	0
bin	0.23333333333333	0
bin	0.26666666666667	0
bin	0.3	0
bin	0.33333333333333	0
bin	0.36666666666667	0
bin	0.4	0
bin	0.43333333333333	0
bin	0.46666666666667	0
bin	0.5	0
statistic scenarioPRJP1.node[55].wlan[0].radio 	packetErrorRate:histogram
field count 16925
field mean 0.061006806612096
field stddev 0.23120407022355
field sum 1032.5402019097
field sqrsum 967.66985143334
field min 0
field max 1
attr source  packetErrorRate
attr title  "Packet error rate, histogram"
bin	-INF	0
bin	-0.5	0
bin	-0.43333333333333	0
bin	-0.36666666666667	0
bin	-0.3	0
bin	-0.23333333333333	0
bin	-0.16666666666667	0
bin	-0.1	0
bin	-0.033333333333333	15618
bin	0.033333333333333	124
bin	0.1	45
bin	0.16666666666667	41
bin	0.23333333333333	30
bin	0.3	15
bin	0.36666666666667	21
bin	0.43333333333333	23
bin	0.5	15
bin	0.56666666666667	14
bin	0.63333333333333	15
bin	0.7	21
bin	0.76666666666667	21
bin	0.83333333333333	21
bin	0.9	29
bin	0.96666666666667	872
bin	1.0333333333333	0
bin	1.1	0
bin	1.1666666666667	0
bin	1.2333333333333	0
bin	1.3	0
bin	1.3666666666667	0
bin	1.4333333333333	0
bin	1.5	0
statistic scenarioPRJP1.node[55].wlan[0].radio 	minSNIR:histogram
field count 16925
field mean 5065.1995923786
field stddev 24492.986956799
field sum 85728503.101007
field sqrsum 10587048062918
field min 0.00096410586409167
field max 751650.91708045
attr source  minSNIR
attr title  "Min SNIR, histogram"
bin	-INF	0
bin	-6805.8997643891	0
bin	-5898.4246113711	0
bin	-4990.9494583531	0
bin	-4083.4743053351	0
bin	-3175.9991523172	0
bin	-2268.5239992992	0
bin	-1361.0488462812	0
bin	-453.57369326325	12437
bin	453.90145975472	1220
bin	1361.3766127727	690
bin	2268.8517657907	460
bin	3176.3269188086	265
bin	4083.8020718266	209
bin	4991.2772248446	104
bin	5898.7523778626	76
bin	6806.2275308805	59
bin	7713.7026838985	49
bin	8621.1778369165	48
bin	9528.6529899344	53
bin	10436.128142952	68
bin	11343.60329597	68
bin	12251.078448988	73
bin	13158.553602006	145
bin	14066.028755024	27
bin	14973.503908042	36
bin	15880.97906106	29
bin	16788.454214078	21
bin	17695.929367096	23
bin	18603.404520114	18
bin	19510.879673132	35
bin	20418.35482615	712
scalar scenarioPRJP1.node[55].lo0.lo 	droppedPkBitError:count 	0
attr interpolationmode  none
attr source  dropPkBitError
attr title  "packets dropped/bit error, count"
scalar scenarioPRJP1.node[55].lo0.lo 	droppedPkBitError:sum(packetBytes) 	0
attr interpolationmode  none
attr source  dropPkBitError
attr title  "packets dropped/bit error, sum(packetBytes)"
scalar scenarioPRJP1.node[55].lo0.lo 	rcvdPkFromHL:count 	0
attr interpolationmode  none
attr source  packetReceivedFromUpper
attr title  "packets received from higher layer, count"
scalar scenarioPRJP1.node[55].lo0.lo 	rcvdPkFromHL:sum(packetBytes) 	0
attr interpolationmode  none
attr source  packetReceivedFromUpper
attr title  "packets received from higher layer, sum(packetBytes)"
scalar scenarioPRJP1.node[55].lo0.lo 	passedUpPk:count 	0
attr interpolationmode  none
attr source  packetSentToUpper
attr title  "packets passed to higher layer, count"
scalar scenarioPRJP1.node[55].lo0.lo 	passedUpPk:sum(packetBytes) 	0
attr interpolationmode  none
attr source  packetSentToUpper
attr title  "packets passed to higher layer, sum(packetBytes)"
scalar scenarioPRJP1.node[75].app 	"Total sent" 	369
scalar scenarioPRJP1.node[75].app 	"Total received" 	13
scalar scenarioPRJP1.node[75].app 	"Total deleted" 	1
scalar scenarioPRJP1.node[75].app 	dropPk:count 	1
attr interpolationmode  none
attr source  dropPk
attr title  "packets dropped, count"
scalar scenarioPRJP1.node[75].app 	dropPk:sum(packetBytes) 	512
attr interpolationmode  none
attr source  dropPk
attr title  "packets dropped, sum(packetBytes)"
scalar scenarioPRJP1.node[75].app 	outOfOrderPk:count 	0
attr interpolationmode  none
attr source  outOfOrderPk
attr title  "packets received out of order, count"
scalar scenarioPRJP1.node[75].app 	outOfOrderPk:sum(packetBytes) 	0
attr interpolationmode  none
attr source  outOfOrderPk
attr title  "packets received out of order, sum(packetBytes)"
scalar scenarioPRJP1.node[75].app 	rcvdPk:count 	13
attr interpolationmode  none
attr source  rcvdPk
attr title  "packets received, count"
scalar scenarioPRJP1.node[75].app 	rcvdPk:sum(packetBytes) 	6656
attr interpolationmode  none
attr source  rcvdPk
attr title  "packets received, sum(packetBytes)"
statistic scenarioPRJP1.node[75].app 	endToEndDelay:histogram
field count 13
field mean 0.0055009197637692
field stddev 0.0083066048584463
field sum 0.071511956929
field sqrsum 0.0012213777485089
field min 0.000971396627
field max 0.027461468856
attr interpolationmode  none
attr source  messageAge(rcvdPk)
attr title  "delay, histogram"
attr unit  s
bin	-INF	0
bin	-0.0122736394875	0
bin	-0.010507634672233	0
bin	-0.0087416298569667	0
bin	-0.0069756250417	0
bin	-0.0052096202264333	0
bin	-0.0034436154111667	0
bin	-0.0016776105959	0
bin	8.8394219366668e-05	8
bin	0.0018543990346333	1
bin	0.0036204038499	1
bin	0.0053864086651667	0
bin	0.0071524134804333	0
bin	0.0089184182957	0
bin	0.010684423110967	1
bin	0.012450427926233	0
bin	0.0142164327415	0
bin	0.015982437556767	1
bin	0.017748442372033	0
bin	0.0195144471873	0
bin	0.021280452002567	0
bin	0.023046456817833	0
bin	0.0248124616331	0
bin	0.026578466448367	1
bin	0.028344471263633	0
bin	0.0301104760789	0
bin	0.031876480894167	0
bin	0.033642485709433	0
bin	0.0354084905247	0
bin	0.037174495339967	0
bin	0.038940500155233	0
bin	0.0407065049705	0
scalar scenarioPRJP1.node[75].app 	sentPk:count 	369
attr interpolationmode  none
attr source  sentPk
attr title  "packets sent, count"
scalar scenarioPRJP1.node[75].app 	sentPk:sum(packetBytes) 	188928
attr interpolationmode  none
attr source  sentPk
attr title  "packets sent, sum(packetBytes)"
scalar scenarioPRJP1.node[75].udp 	droppedPkBadChecksum:count 	0
attr interpolationmode  none
attr title  "packets dropped (checksum error), count"
scalar scenarioPRJP1.node[75].udp 	droppedPkWrongPort:count 	0
attr interpolationmode  none
attr title  "packets dropped (wrong port), count"
scalar scenarioPRJP1.node[75].udp 	passedUpPk:count 	14
attr interpolationmode  none
attr title  "packets passed up, count"
scalar scenarioPRJP1.node[75].udp 	rcvdPk:count 	14
attr interpolationmode  none
attr source  rcvdPk
attr title  "packets received, count"
scalar scenarioPRJP1.node[75].udp 	rcvdPk:sum(packetBytes) 	7280
attr interpolationmode  none
attr source  rcvdPk
attr title  "packets received, sum(packetBytes)"
scalar scenarioPRJP1.node[75].udp 	sentPk:count 	369
attr interpolationmode  none
attr source  sentPk
attr title  "packets sent, count"
scalar scenarioPRJP1.node[75].udp 	sentPk:sum(packetBytes) 	191880
attr interpolationmode  none
attr source  sentPk
attr title  "packets sent, sum(packetBytes)"
scalar scenarioPRJP1.node[75].networkLayer.arp 	failedARPResolution:count 	1
attr title  "ARP failed resolutions, count"
scalar scenarioPRJP1.node[75].networkLayer.arp 	completedARPResolution:count 	109
attr title  "ARP completed resolutions, count"
scalar scenarioPRJP1.node[75].networkLayer.arp 	initiatedARPResolution:count 	13
attr title  "ARP initiated resolutions, count"
scalar scenarioPRJP1.node[75].networkLayer.arp 	sentReply:count 	10
attr title  "ARP replies sent, count"
scalar scenarioPRJP1.node[75].networkLayer.arp 	sentReq:count 	17
attr title  "ARP request sent, count"
scalar scenarioPRJP1.node[75].mobility 	startTime 	7.4
scalar scenarioPRJP1.node[75].mobility 	totalTime 	153
scalar scenarioPRJP1.node[75].mobility 	stopTime 	160.5
scalar scenarioPRJP1.node[75].mobility 	minSpeed 	2.4754835327845e-13
scalar scenarioPRJP1.node[75].mobility 	maxSpeed 	17.668099794131
scalar scenarioPRJP1.node[75].mobility 	totalDistance 	1484.9748931605
scalar scenarioPRJP1.node[75].mobility 	totalCO2Emission 	446.33482779133
scalar scenarioPRJP1.node[75].wlan[0].mgmt 	dataQueueLen:max 	1
attr interpolationmode  sample-hold
attr title  "data queue length, max"
scalar scenarioPRJP1.node[75].wlan[0].mgmt 	dataQueueLen:timeavg 	0
attr interpolationmode  sample-hold
attr title  "data queue length, timeavg"
scalar scenarioPRJP1.node[75].wlan[0].mgmt 	dropPkByQueue:count 	0
attr interpolationmode  none
attr source  dropPkByQueue
attr title  "packets dropped by queue, count"
scalar scenarioPRJP1.node[75].wlan[0].mgmt 	dropPkByQueue:sum(packetBytes) 	0
attr interpolationmode  none
attr source  dropPkByQueue
attr title  "packets dropped by queue, sum(packetBytes)"
scalar scenarioPRJP1.node[75].wlan[0].mac 	"number of received packets" 	238
scalar scenarioPRJP1.node[75].wlan[0].mac 	"number of collisions" 	1258
scalar scenarioPRJP1.node[75].wlan[0].mac 	"number of internal collisions" 	0
scalar scenarioPRJP1.node[75].wlan[0].mac 	"number of retry for AC 0" 	275
scalar scenarioPRJP1.node[75].wlan[0].mac 	"number of retry for AC 1" 	0
scalar scenarioPRJP1.node[75].wlan[0].mac 	"number of retry for AC 2" 	0
scalar scenarioPRJP1.node[75].wlan[0].mac 	"number of retry for AC 3" 	0
scalar scenarioPRJP1.node[75].wlan[0].mac 	"sent and received bits" 	1672064
scalar scenarioPRJP1.node[75].wlan[0].mac 	"sent packet within AC 0" 	55
scalar scenarioPRJP1.node[75].wlan[0].mac 	"sent packet within AC 1" 	0
scalar scenarioPRJP1.node[75].wlan[0].mac 	"sent packet within AC 2" 	0
scalar scenarioPRJP1.node[75].wlan[0].mac 	"sent packet within AC 3" 	0
scalar scenarioPRJP1.node[75].wlan[0].mac 	"sent in TXOP " 	0
scalar scenarioPRJP1.node[75].wlan[0].mac 	"sentWithoutRetry AC 0" 	50
scalar scenarioPRJP1.node[75].wlan[0].mac 	"sentWithoutRetry AC 1" 	0
scalar scenarioPRJP1.node[75].wlan[0].mac 	"sentWithoutRetry AC 2" 	0
scalar scenarioPRJP1.node[75].wlan[0].mac 	"sentWithoutRetry AC 3" 	0
scalar scenarioPRJP1.node[75].wlan[0].mac 	"numGivenUp AC 0" 	44
scalar scenarioPRJP1.node[75].wlan[0].mac 	"numGivenUp AC 1" 	0
scalar scenarioPRJP1.node[75].wlan[0].mac 	"numGivenUp AC 2" 	0
scalar scenarioPRJP1.node[75].wlan[0].mac 	"numGivenUp AC 3" 	0
scalar scenarioPRJP1.node[75].wlan[0].mac 	"numDropped AC 0" 	0
scalar scenarioPRJP1.node[75].wlan[0].mac 	"numDropped AC 1" 	0
scalar scenarioPRJP1.node[75].wlan[0].mac 	"numDropped AC 2" 	0
scalar scenarioPRJP1.node[75].wlan[0].mac 	"numDropped AC 3" 	0
scalar scenarioPRJP1.node[75].wlan[0].mac 	rcvdPkFromLL:count 	15644
attr interpolationmode  none
attr source  packetReceivedFromLower
attr title  "packets received from lower layer, count"
scalar scenarioPRJP1.node[75].wlan[0].mac 	rcvdPkFromLL:sum(packetBytes) 	2167178
attr interpolationmode  none
attr source  packetReceivedFromLower
attr title  "packets received from lower layer, sum(packetBytes)"
scalar scenarioPRJP1.node[75].wlan[0].mac 	sentDownPk:count 	2758
attr interpolationmode  none
attr source  packetSentToLower
attr title  "packets sent to lower layer, count"
scalar scenarioPRJP1.node[75].wlan[0].mac 	sentDownPk:sum(packetBytes) 	331364
attr interpolationmode  none
attr source  packetSentToLower
attr title  "packets sent to lower layer, sum(packetBytes)"
scalar scenarioPRJP1.node[75].wlan[0].mac 	rcvdPkFromHL:count 	2245
attr interpolationmode  none
attr source  packetReceivedFromUpper
attr title  "packets received from higher layer, count"
scalar scenarioPRJP1.node[75].wlan[0].mac 	rcvdPkFromHL:sum(packetBytes) 	225396
attr interpolationmode  none
attr source  packetReceivedFromUpper
attr title  "packets received from higher layer, sum(packetBytes)"
scalar scenarioPRJP1.node[75].wlan[0].mac 	passedUpPk:count 	10293
attr interpolationmode  none
attr source  packetSentToUpper
attr title  "packets passed to higher layer, count"
scalar scenarioPRJP1.node[75].wlan[0].mac 	passedUpPk:sum(packetBytes) 	924336
attr interpolationmode  none
attr source  packetSentToUpper
attr title  "packets passed to higher layer, sum(packetBytes)"
statistic scenarioPRJP1.node[75].wlan[0].radio 	radioChannel:histogram
field count 1
field mean 3
field stddev -nan
field sum 3
field sqrsum 9
field min 3
field max 3
attr interpolationmode  sample-hold
attr source  radioChannelChanged
attr title  "Radio channel, histogram"
bin	-INF	0
bin	2	0
bin	3	1
bin	4	0
scalar scenarioPRJP1.node[75].wlan[0].radio 	transmissionState:count 	11032
attr interpolationmode  sample-hold
attr source  transmissionStateChanged
attr title  "Radio transmission state, count"
scalar scenarioPRJP1.node[75].wlan[0].radio 	receptionState:count 	37015
attr interpolationmode  sample-hold
attr source  receptionStateChanged
attr title  "Radio reception state, count"
scalar scenarioPRJP1.node[75].wlan[0].radio 	radioMode:count 	5518
attr interpolationmode  sample-hold
attr source  radioModeChanged
attr title  "Radio mode, count"
statistic scenarioPRJP1.node[75].wlan[0].radio 	symbolErrorRate:histogram
field count 0
field mean -nan
field stddev -nan
field sum 0
field sqrsum 0
field min -nan
field max -nan
attr source  symbolErrorRate
attr title  "Symbol error rate, histogram"
bin	-INF	0
bin	-0.5	0
bin	-0.46666666666667	0
bin	-0.43333333333333	0
bin	-0.4	0
bin	-0.36666666666667	0
bin	-0.33333333333333	0
bin	-0.3	0
bin	-0.26666666666667	0
bin	-0.23333333333333	0
bin	-0.2	0
bin	-0.16666666666667	0
bin	-0.13333333333333	0
bin	-0.1	0
bin	-0.066666666666667	0
bin	-0.033333333333333	0
bin	0	0
bin	0.033333333333333	0
bin	0.066666666666667	0
bin	0.1	0
bin	0.13333333333333	0
bin	0.16666666666667	0
bin	0.2	0
bin	0.23333333333333	0
bin	0.26666666666667	0
bin	0.3	0
bin	0.33333333333333	0
bin	0.36666666666667	0
bin	0.4	0
bin	0.43333333333333	0
bin	0.46666666666667	0
bin	0.5	0
statistic scenarioPRJP1.node[75].wlan[0].radio 	bitErrorRate:histogram
field count 0
field mean -nan
field stddev -nan
field sum 0
field sqrsum 0
field min -nan
field max -nan
attr source  bitErrorRate
attr title  "Bit error rate, histogram"
bin	-INF	0
bin	-0.5	0
bin	-0.46666666666667	0
bin	-0.43333333333333	0
bin	-0.4	0
bin	-0.36666666666667	0
bin	-0.33333333333333	0
bin	-0.3	0
bin	-0.26666666666667	0
bin	-0.23333333333333	0
bin	-0.2	0
bin	-0.16666666666667	0
bin	-0.13333333333333	0
bin	-0.1	0
bin	-0.066666666666667	0
bin	-0.033333333333333	0
bin	0	0
bin	0.033333333333333	0
bin	0.066666666666667	0
bin	0.1	0
bin	0.13333333333333	0
bin	0.16666666666667	0
bin	0.2	0
bin	0.23333333333333	0
bin	0.26666666666667	0
bin	0.3	0
bin	0.33333333333333	0
bin	0.36666666666667	0
bin	0.4	0
bin	0.43333333333333	0
bin	0.46666666666667	0
bin	0.5	0
statistic scenarioPRJP1.node[75].wlan[0].radio 	packetErrorRate:histogram
field count 15644
field mean 0.061002811266489
field stddev 0.23116437593587
field sum 954.32797945296
field sqrsum 894.13119101946
field min 0
field max 1
attr source  packetErrorRate
attr title  "Packet error rate, histogram"
bin	-INF	0
bin	-0.5	0
bin	-0.46666666666667	0
bin	-0.43333333333333	0
bin	-0.4	0
bin	-0.36666666666667	0
bin	-0.33333333333333	0
bin	-0.3	0
bin	-0.26666666666667	0
bin	-0.23333333333333	0
bin	-0.2	0
bin	-0.16666666666667	0
bin	-0.13333333333333	0
bin	-0.1	0
bin	-0.066666666666667	0
bin	-0.033333333333333	0
bin	0	14416
bin	0.033333333333333	80
bin	0.066666666666667	47
bin	0.1	32
bin	0.13333333333333	16
bin	0.16666666666667	28
bin	0.2	18
bin	0.23333333333333	9
bin	0.26666666666667	12
bin	0.3	14
bin	0.33333333333333	12
bin	0.36666666666667	7
bin	0.4	9
bin	0.43333333333333	9
bin	0.46666666666667	5
bin	0.5	930
statistic scenarioPRJP1.node[75].wlan[0].radio 	minSNIR:histogram
field count 15644
field mean 6698.7648081677
field stddev 54539.389388522
field sum 104795476.65898
field sqrsum 47232807605893
field min 0.00090229730682605
field max 753239.71902461
attr source  minSNIR
attr title  "Min SNIR, histogram"
bin	-INF	0
bin	-1704.1126522752	0
bin	-1474.9024730975	0
bin	-1245.6922939198	0
bin	-1016.4821147422	0
bin	-787.27193556449	0
bin	-558.06175638682	0
bin	-328.85157720914	0
bin	-99.641398031468	9694
bin	129.56878114621	2420
bin	358.77896032388	812
bin	587.98913950155	383
bin	817.19931867923	280
bin	1046.4094978569	153
bin	1275.6196770346	122
bin	1504.8298562122	108
bin	1734.0400353899	88
bin	1963.2502145676	89
bin	2192.4603937453	78
bin	2421.6705729229	60
bin	2650.8807521006	35
bin	2880.0909312783	49
bin	3109.301110456	35
bin	3338.5112896336	31
bin	3567.7214688113	24
bin	3796.931647989	25
bin	4026.1418271667	20
bin	4255.3520063443	21
bin	4484.562185522	23
bin	4713.7723646997	30
bin	4942.9825438774	17
bin	5172.192723055	1047
scalar scenarioPRJP1.node[75].lo0.lo 	droppedPkBitError:count 	0
attr interpolationmode  none
attr source  dropPkBitError
attr title  "packets dropped/bit error, count"
scalar scenarioPRJP1.node[75].lo0.lo 	droppedPkBitError:sum(packetBytes) 	0
attr interpolationmode  none
attr source  dropPkBitError
attr title  "packets dropped/bit error, sum(packetBytes)"
scalar scenarioPRJP1.node[75].lo0.lo 	rcvdPkFromHL:count 	0
attr interpolationmode  none
attr source  packetReceivedFromUpper
attr title  "packets received from higher layer, count"
scalar scenarioPRJP1.node[75].lo0.lo 	rcvdPkFromHL:sum(packetBytes) 	0
attr interpolationmode  none
attr source  packetReceivedFromUpper
attr title  "packets received from higher layer, sum(packetBytes)"
scalar scenarioPRJP1.node[75].lo0.lo 	passedUpPk:count 	0
attr interpolationmode  none
attr source  packetSentToUpper
attr title  "packets passed to higher layer, count"
scalar scenarioPRJP1.node[75].lo0.lo 	passedUpPk:sum(packetBytes) 	0
attr interpolationmode  none
attr source  packetSentToUpper
attr title  "packets passed to higher layer, sum(packetBytes)"
scalar scenarioPRJP1.node[89].app 	"Total sent" 	380
scalar scenarioPRJP1.node[89].app 	"Total received" 	14
scalar scenarioPRJP1.node[89].app 	"Total deleted" 	0
scalar scenarioPRJP1.node[89].app 	dropPk:count 	0
attr interpolationmode  none
attr source  dropPk
attr title  "packets dropped, count"
scalar scenarioPRJP1.node[89].app 	dropPk:sum(packetBytes) 	0
attr interpolationmode  none
attr source  dropPk
attr title  "packets dropped, sum(packetBytes)"
scalar scenarioPRJP1.node[89].app 	outOfOrderPk:count 	0
attr interpolationmode  none
attr source  outOfOrderPk
attr title  "packets received out of order, count"
scalar scenarioPRJP1.node[89].app 	outOfOrderPk:sum(packetBytes) 	0
attr interpolationmode  none
attr source  outOfOrderPk
attr title  "packets received out of order, sum(packetBytes)"
scalar scenarioPRJP1.node[89].app 	rcvdPk:count 	14
attr interpolationmode  none
attr source  rcvdPk
attr title  "packets received, count"
scalar scenarioPRJP1.node[89].app 	rcvdPk:sum(packetBytes) 	7168
attr interpolationmode  none
attr source  rcvdPk
attr title  "packets received, sum(packetBytes)"
statistic scenarioPRJP1.node[89].app 	endToEndDelay:histogram
field count 14
field mean 0.13618947377086
field stddev 0.47588478955002
field sum 1.906652632792
field sqrsum 3.2037283467496
field min 0.000984359897
field max 1.78858283468
attr interpolationmode  none
attr source  messageAge(rcvdPk)
attr title  "delay, histogram"
attr unit  s
bin	-INF	0
bin	-0.8928148774945	0
bin	-0.7736416458423	0
bin	-0.6544684141901	0
bin	-0.5352951825379	0
bin	-0.4161219508857	0
bin	-0.2969487192335	0
bin	-0.1777754875813	0
bin	-0.0586022559291	12
bin	0.0605709757231	1
bin	0.1797442073753	0
bin	0.2989174390275	0
bin	0.4180906706797	0
bin	0.5372639023319	0
bin	0.6564371339841	0
bin	0.7756103656363	0
bin	0.8947835972885	0
bin	1.0139568289407	0
bin	1.1331300605929	0
bin	1.2523032922451	0
bin	1.3714765238973	0
bin	1.4906497555495	0
bin	1.6098229872017	0
bin	1.7289962188539	1
bin	1.8481694505061	0
bin	1.9673426821583	0
bin	2.0865159138105	0
bin	2.2056891454627	0
bin	2.3248623771149	0
bin	2.4440356087671	0
bin	2.5632088404193	0
bin	2.6823820720715	0
scalar scenarioPRJP1.node[89].app 	sentPk:count 	380
attr interpolationmode  none
attr source  sentPk
attr title  "packets sent, count"
scalar scenarioPRJP1.node[89].app 	sentPk:sum(packetBytes) 	194560
attr interpolationmode  none
attr source  sentPk
attr title  "packets sent, sum(packetBytes)"
scalar scenarioPRJP1.node[89].udp 	droppedPkBadChecksum:count 	0
attr interpolationmode  none
attr title  "packets dropped (checksum error), count"
scalar scenarioPRJP1.node[89].udp 	droppedPkWrongPort:count 	0
attr interpolationmode  none
attr title  "packets dropped (wrong port), count"
scalar scenarioPRJP1.node[89].udp 	passedUpPk:count 	14
attr interpolationmode  none
attr title  "packets passed up, count"
scalar scenarioPRJP1.node[89].udp 	rcvdPk:count 	14
attr interpolationmode  none
attr source  rcvdPk
attr title  "packets received, count"
scalar scenarioPRJP1.node[89].udp 	rcvdPk:sum(packetBytes) 	7280
attr interpolationmode  none
attr source  rcvdPk
attr title  "packets received, sum(packetBytes)"
scalar scenarioPRJP1.node[89].udp 	sentPk:count 	380
attr interpolationmode  none
attr source  sentPk
attr title  "packets sent, count"
scalar scenarioPRJP1.node[89].udp 	sentPk:sum(packetBytes) 	197600
attr interpolationmode  none
attr source  sentPk
attr title  "packets sent, sum(packetBytes)"
scalar scenarioPRJP1.node[89].networkLayer.arp 	failedARPResolution:count 	1
attr title  "ARP failed resolutions, count"
scalar scenarioPRJP1.node[89].networkLayer.arp 	completedARPResolution:count 	65
attr title  "ARP completed resolutions, count"
scalar scenarioPRJP1.node[89].networkLayer.arp 	initiatedARPResolution:count 	12
attr title  "ARP initiated resolutions, count"
scalar scenarioPRJP1.node[89].networkLayer.arp 	sentReply:count 	8
attr title  "ARP replies sent, count"
scalar scenarioPRJP1.node[89].networkLayer.arp 	sentReq:count 	16
attr title  "ARP request sent, count"
scalar scenarioPRJP1.node[89].mobility 	startTime 	9.7
scalar scenarioPRJP1.node[89].mobility 	totalTime 	152.5
scalar scenarioPRJP1.node[89].mobility 	stopTime 	162.3
scalar scenarioPRJP1.node[89].mobility 	minSpeed 	2.479832043817e-13
scalar scenarioPRJP1.node[89].mobility 	maxSpeed 	16.114770874357
scalar scenarioPRJP1.node[89].mobility 	totalDistance 	1485.1287210843
scalar scenarioPRJP1.node[89].mobility 	totalCO2Emission 	416.49656284084
scalar scenarioPRJP1.node[89].wlan[0].mgmt 	dataQueueLen:max 	0
attr interpolationmode  sample-hold
attr title  "data queue length, max"
scalar scenarioPRJP1.node[89].wlan[0].mgmt 	dataQueueLen:timeavg 	0
attr interpolationmode  sample-hold
attr title  "data queue length, timeavg"
scalar scenarioPRJP1.node[89].wlan[0].mgmt 	dropPkByQueue:count 	0
attr interpolationmode  none
attr source  dropPkByQueue
attr title  "packets dropped by queue, count"
scalar scenarioPRJP1.node[89].wlan[0].mgmt 	dropPkByQueue:sum(packetBytes) 	0
attr interpolationmode  none
attr source  dropPkByQueue
attr title  "packets dropped by queue, sum(packetBytes)"
scalar scenarioPRJP1.node[89].wlan[0].mac 	"number of received packets" 	207
scalar scenarioPRJP1.node[89].wlan[0].mac 	"number of collisions" 	1518
scalar scenarioPRJP1.node[89].wlan[0].mac 	"number of internal collisions" 	0
scalar scenarioPRJP1.node[89].wlan[0].mac 	"number of retry for AC 0" 	275
scalar scenarioPRJP1.node[89].wlan[0].mac 	"number of retry for AC 1" 	0
scalar scenarioPRJP1.node[89].wlan[0].mac 	"number of retry for AC 2" 	0
scalar scenarioPRJP1.node[89].wlan[0].mac 	"number of retry for AC 3" 	0
scalar scenarioPRJP1.node[89].wlan[0].mac 	"sent and received bits" 	1386400
scalar scenarioPRJP1.node[89].wlan[0].mac 	"sent packet within AC 0" 	21
scalar scenarioPRJP1.node[89].wlan[0].mac 	"sent packet within AC 1" 	0
scalar scenarioPRJP1.node[89].wlan[0].mac 	"sent packet within AC 2" 	0
scalar scenarioPRJP1.node[89].wlan[0].mac 	"sent packet within AC 3" 	0
scalar scenarioPRJP1.node[89].wlan[0].mac 	"sent in TXOP " 	0
scalar scenarioPRJP1.node[89].wlan[0].mac 	"sentWithoutRetry AC 0" 	17
scalar scenarioPRJP1.node[89].wlan[0].mac 	"sentWithoutRetry AC 1" 	0
scalar scenarioPRJP1.node[89].wlan[0].mac 	"sentWithoutRetry AC 2" 	0
scalar scenarioPRJP1.node[89].wlan[0].mac 	"sentWithoutRetry AC 3" 	0
scalar scenarioPRJP1.node[89].wlan[0].mac 	"numGivenUp AC 0" 	44
scalar scenarioPRJP1.node[89].wlan[0].mac 	"numGivenUp AC 1" 	0
scalar scenarioPRJP1.node[89].wlan[0].mac 	"numGivenUp AC 2" 	0
scalar scenarioPRJP1.node[89].wlan[0].mac 	"numGivenUp AC 3" 	0
scalar scenarioPRJP1.node[89].wlan[0].mac 	"numDropped AC 0" 	0
scalar scenarioPRJP1.node[89].wlan[0].mac 	"numDropped AC 1" 	0
scalar scenarioPRJP1.node[89].wlan[0].mac 	"numDropped AC 2" 	0
scalar scenarioPRJP1.node[89].wlan[0].mac 	"numDropped AC 3" 	0
scalar scenarioPRJP1.node[89].wlan[0].mac 	rcvdPkFromLL:count 	14345
attr interpolationmode  none
attr source  packetReceivedFromLower
attr title  "packets received from lower layer, count"
scalar scenarioPRJP1.node[89].wlan[0].mac 	rcvdPkFromLL:sum(packetBytes) 	1924392
attr interpolationmode  none
attr source  packetReceivedFromLower
attr title  "packets received from lower layer, sum(packetBytes)"
scalar scenarioPRJP1.node[89].wlan[0].mac 	sentDownPk:count 	2447
attr interpolationmode  none
attr source  packetSentToLower
attr title  "packets sent to lower layer, count"
scalar scenarioPRJP1.node[89].wlan[0].mac 	sentDownPk:sum(packetBytes) 	310534
attr interpolationmode  none
attr source  packetSentToLower
attr title  "packets sent to lower layer, sum(packetBytes)"
scalar scenarioPRJP1.node[89].wlan[0].mac 	rcvdPkFromHL:count 	1965
attr interpolationmode  none
attr source  packetReceivedFromUpper
attr title  "packets received from higher layer, count"
scalar scenarioPRJP1.node[89].wlan[0].mac 	rcvdPkFromHL:sum(packetBytes) 	191656
attr interpolationmode  none
attr source  packetReceivedFromUpper
attr title  "packets received from higher layer, sum(packetBytes)"
scalar scenarioPRJP1.node[89].wlan[0].mac 	passedUpPk:count 	9196
attr interpolationmode  none
attr source  packetSentToUpper
attr title  "packets passed to higher layer, count"
scalar scenarioPRJP1.node[89].wlan[0].mac 	passedUpPk:sum(packetBytes) 	822568
attr interpolationmode  none
attr source  packetSentToUpper
attr title  "packets passed to higher layer, sum(packetBytes)"
statistic scenarioPRJP1.node[89].wlan[0].radio 	radioChannel:histogram
field count 1
field mean 3
field stddev -nan
field sum 3
field sqrsum 9
field min 3
field max 3
attr interpolationmode  sample-hold
attr source  radioChannelChanged
attr title  "Radio channel, histogram"
bin	-INF	0
bin	2	0
bin	3	1
bin	4	0
scalar scenarioPRJP1.node[89].wlan[0].radio 	transmissionState:count 	9788
attr interpolationmode  sample-hold
attr source  transmissionStateChanged
attr title  "Radio transmission state, count"
scalar scenarioPRJP1.node[89].wlan[0].radio 	receptionState:count 	33717
attr interpolationmode  sample-hold
attr source  receptionStateChanged
attr title  "Radio reception state, count"
scalar scenarioPRJP1.node[89].wlan[0].radio 	radioMode:count 	4896
attr interpolationmode  sample-hold
attr source  radioModeChanged
attr title  "Radio mode, count"
statistic scenarioPRJP1.node[89].wlan[0].radio 	symbolErrorRate:histogram
field count 0
field mean -nan
field stddev -nan
field sum 0
field sqrsum 0
field min -nan
field max -nan
attr source  symbolErrorRate
attr title  "Symbol error rate, histogram"
bin	-INF	0
bin	-0.5	0
bin	-0.46666666666667	0
bin	-0.43333333333333	0
bin	-0.4	0
bin	-0.36666666666667	0
bin	-0.33333333333333	0
bin	-0.3	0
bin	-0.26666666666667	0
bin	-0.23333333333333	0
bin	-0.2	0
bin	-0.16666666666667	0
bin	-0.13333333333333	0
bin	-0.1	0
bin	-0.066666666666667	0
bin	-0.033333333333333	0
bin	0	0
bin	0.033333333333333	0
bin	0.066666666666667	0
bin	0.1	0
bin	0.13333333333333	0
bin	0.16666666666667	0
bin	0.2	0
bin	0.23333333333333	0
bin	0.26666666666667	0
bin	0.3	0
bin	0.33333333333333	0
bin	0.36666666666667	0
bin	0.4	0
bin	0.43333333333333	0
bin	0.46666666666667	0
bin	0.5	0
statistic scenarioPRJP1.node[89].wlan[0].radio 	bitErrorRate:histogram
field count 0
field mean -nan
field stddev -nan
field sum 0
field sqrsum 0
field min -nan
field max -nan
attr source  bitErrorRate
attr title  "Bit error rate, histogram"
bin	-INF	0
bin	-0.5	0
bin	-0.46666666666667	0
bin	-0.43333333333333	0
bin	-0.4	0
bin	-0.36666666666667	0
bin	-0.33333333333333	0
bin	-0.3	0
bin	-0.26666666666667	0
bin	-0.23333333333333	0
bin	-0.2	0
bin	-0.16666666666667	0
bin	-0.13333333333333	0
bin	-0.1	0
bin	-0.066666666666667	0
bin	-0.033333333333333	0
bin	0	0
bin	0.033333333333333	0
bin	0.066666666666667	0
bin	0.1	0
bin	0.13333333333333	0
bin	0.16666666666667	0
bin	0.2	0
bin	0.23333333333333	0
bin	0.26666666666667	0
bin	0.3	0
bin	0.33333333333333	0
bin	0.36666666666667	0
bin	0.4	0
bin	0.43333333333333	0
bin	0.46666666666667	0
bin	0.5	0
statistic scenarioPRJP1.node[89].wlan[0].radio 	packetErrorRate:histogram
field count 14345
field mean 0.079945005507506
field stddev 0.26136168504216
field sum 1146.8111040052
field sqrsum 1071.5194617993
field min 0
field max 1
attr source  packetErrorRate
attr title  "Packet error rate, histogram"
bin	-INF	0
bin	-0.5	0
bin	-0.43333333333333	0
bin	-0.36666666666667	0
bin	-0.3	0
bin	-0.23333333333333	0
bin	-0.16666666666667	0
bin	-0.1	0
bin	-0.033333333333333	12865
bin	0.033333333333333	160
bin	0.1	52
bin	0.16666666666667	47
bin	0.23333333333333	28
bin	0.3	36
bin	0.36666666666667	17
bin	0.43333333333333	20
bin	0.5	21
bin	0.56666666666667	17
bin	0.63333333333333	25
bin	0.7	17
bin	0.76666666666667	17
bin	0.83333333333333	19
bin	0.9	40
bin	0.96666666666667	964
bin	1.0333333333333	0
bin	1.1	0
bin	1.1666666666667	0
bin	1.2333333333333	0
bin	1.3	0
bin	1.3666666666667	0
bin	1.4333333333333	0
bin	1.5	0
statistic scenarioPRJP1.node[89].wlan[0].radio 	minSNIR:histogram
field count 14345
field mean 4974.1760255106
field stddev 23678.351761941
field sum 71354555.08595
field sqrsum 8397099441194
field min 0.00072944961960376
field max 186256.90682345
attr source  minSNIR
attr title  "Min SNIR, histogram"
bin	-INF	0
bin	-133.40372822056	0
bin	-115.51041931791	0
bin	-97.617110415266	0
bin	-79.723801512619	0
bin	-61.830492609971	0
bin	-43.937183707324	0
bin	-26.043874804676	0
bin	-8.1505659020285	4520
bin	9.742743000619	2209
bin	27.636051903267	772
bin	45.529360805914	484
bin	63.422669708562	320
bin	81.315978611209	192
bin	99.209287513857	155
bin	117.1025964165	321
bin	134.99590531915	267
bin	152.8892142218	284
bin	170.78252312445	242
bin	188.67583202709	227
bin	206.56914092974	147
bin	224.46244983239	154
bin	242.35575873504	138
bin	260.24906763768	92
bin	278.14237654033	91
bin	296.03568544298	102
bin	313.92899434563	71
bin	331.82230324828	50
bin	349.71561215092	52
bin	367.60892105357	61
bin	385.50222995622	49
bin	403.39553885887	3345
scalar scenarioPRJP1.node[89].lo0.lo 	droppedPkBitError:count 	0
attr interpolationmode  none
attr source  dropPkBitError
attr title  "packets dropped/bit error, count"
scalar scenarioPRJP1.node[89].lo0.lo 	droppedPkBitError:sum(packetBytes) 	0
attr interpolationmode  none
attr source  dropPkBitError
attr title  "packets dropped/bit error, sum(packetBytes)"
scalar scenarioPRJP1.node[89].lo0.lo 	rcvdPkFromHL:count 	0
attr interpolationmode  none
attr source  packetReceivedFromUpper
attr title  "packets received from higher layer, count"
scalar scenarioPRJP1.node[89].lo0.lo 	rcvdPkFromHL:sum(packetBytes) 	0
attr interpolationmode  none
attr source  packetReceivedFromUpper
attr title  "packets received from higher layer, sum(packetBytes)"
scalar scenarioPRJP1.node[89].lo0.lo 	passedUpPk:count 	0
attr interpolationmode  none
attr source  packetSentToUpper
attr title  "packets passed to higher layer, count"
scalar scenarioPRJP1.node[89].lo0.lo 	passedUpPk:sum(packetBytes) 	0
attr interpolationmode  none
attr source  packetSentToUpper
attr title  "packets passed to higher layer, sum(packetBytes)"
scalar scenarioPRJP1.node[49].app 	"Total sent" 	378
scalar scenarioPRJP1.node[49].app 	"Total received" 	21
scalar scenarioPRJP1.node[49].app 	"Total deleted" 	6
scalar scenarioPRJP1.node[49].app 	dropPk:count 	6
attr interpolationmode  none
attr source  dropPk
attr title  "packets dropped, count"
scalar scenarioPRJP1.node[49].app 	dropPk:sum(packetBytes) 	3072
attr interpolationmode  none
attr source  dropPk
attr title  "packets dropped, sum(packetBytes)"
scalar scenarioPRJP1.node[49].app 	outOfOrderPk:count 	0
attr interpolationmode  none
attr source  outOfOrderPk
attr title  "packets received out of order, count"
scalar scenarioPRJP1.node[49].app 	outOfOrderPk:sum(packetBytes) 	0
attr interpolationmode  none
attr source  outOfOrderPk
attr title  "packets received out of order, sum(packetBytes)"
scalar scenarioPRJP1.node[49].app 	rcvdPk:count 	21
attr interpolationmode  none
attr source  rcvdPk
attr title  "packets received, count"
scalar scenarioPRJP1.node[49].app 	rcvdPk:sum(packetBytes) 	10752
attr interpolationmode  none
attr source  rcvdPk
attr title  "packets received, sum(packetBytes)"
statistic scenarioPRJP1.node[49].app 	endToEndDelay:histogram
field count 21
field mean 0.052712828904381
field stddev 0.21790755632504
field sum 1.106969406992
field sqrsum 1.0080255510241
field min 0.000945357196
field max 1.003222052987
attr interpolationmode  none
attr source  messageAge(rcvdPk)
attr title  "delay, histogram"
attr unit  s
bin	-INF	0
bin	-0.5001929906995	0
bin	-0.43337454431343	0
bin	-0.36655609792737	0
bin	-0.2997376515413	0
bin	-0.23291920515523	0
bin	-0.16610075876917	0
bin	-0.0992823123831	0
bin	-0.032463865997033	20
bin	0.034354580389033	0
bin	0.1011730267751	0
bin	0.16799147316117	0
bin	0.23480991954723	0
bin	0.3016283659333	0
bin	0.36844681231937	0
bin	0.43526525870543	0
bin	0.5020837050915	0
bin	0.56890215147757	0
bin	0.63572059786363	0
bin	0.7025390442497	0
bin	0.76935749063577	0
bin	0.83617593702183	0
bin	0.9029943834079	0
bin	0.96981282979397	1
bin	1.03663127618	0
bin	1.1034497225661	0
bin	1.1702681689522	0
bin	1.2370866153382	0
bin	1.3039050617243	0
bin	1.3707235081104	0
bin	1.4375419544964	0
bin	1.5043604008825	0
scalar scenarioPRJP1.node[49].app 	sentPk:count 	378
attr interpolationmode  none
attr source  sentPk
attr title  "packets sent, count"
scalar scenarioPRJP1.node[49].app 	sentPk:sum(packetBytes) 	193536
attr interpolationmode  none
attr source  sentPk
attr title  "packets sent, sum(packetBytes)"
scalar scenarioPRJP1.node[49].udp 	droppedPkBadChecksum:count 	0
attr interpolationmode  none
attr title  "packets dropped (checksum error), count"
scalar scenarioPRJP1.node[49].udp 	droppedPkWrongPort:count 	0
attr interpolationmode  none
attr title  "packets dropped (wrong port), count"
scalar scenarioPRJP1.node[49].udp 	passedUpPk:count 	27
attr interpolationmode  none
attr title  "packets passed up, count"
scalar scenarioPRJP1.node[49].udp 	rcvdPk:count 	27
attr interpolationmode  none
attr source  rcvdPk
attr title  "packets received, count"
scalar scenarioPRJP1.node[49].udp 	rcvdPk:sum(packetBytes) 	14040
attr interpolationmode  none
attr source  rcvdPk
attr title  "packets received, sum(packetBytes)"
scalar scenarioPRJP1.node[49].udp 	sentPk:count 	378
attr interpolationmode  none
attr source  sentPk
attr title  "packets sent, count"
scalar scenarioPRJP1.node[49].udp 	sentPk:sum(packetBytes) 	196560
attr interpolationmode  none
attr source  sentPk
attr title  "packets sent, sum(packetBytes)"
scalar scenarioPRJP1.node[49].networkLayer.arp 	failedARPResolution:count 	1
attr title  "ARP failed resolutions, count"
scalar scenarioPRJP1.node[49].networkLayer.arp 	completedARPResolution:count 	96
attr title  "ARP completed resolutions, count"
scalar scenarioPRJP1.node[49].networkLayer.arp 	initiatedARPResolution:count 	12
attr title  "ARP initiated resolutions, count"
scalar scenarioPRJP1.node[49].networkLayer.arp 	sentReply:count 	10
attr title  "ARP replies sent, count"
scalar scenarioPRJP1.node[49].networkLayer.arp 	sentReq:count 	16
attr title  "ARP request sent, count"
scalar scenarioPRJP1.node[49].mobility 	startTime 	4.9
scalar scenarioPRJP1.node[49].mobility 	totalTime 	158.8
scalar scenarioPRJP1.node[49].mobility 	stopTime 	163.8
scalar scenarioPRJP1.node[49].mobility 	minSpeed 	2.4759422799021e-13
scalar scenarioPRJP1.node[49].mobility 	maxSpeed 	14.909214550763
scalar scenarioPRJP1.node[49].mobility 	totalDistance 	1484.5994863246
scalar scenarioPRJP1.node[49].mobility 	totalCO2Emission 	399.70046517106
scalar scenarioPRJP1.node[49].wlan[0].mgmt 	dataQueueLen:max 	0
attr interpolationmode  sample-hold
attr title  "data queue length, max"
scalar scenarioPRJP1.node[49].wlan[0].mgmt 	dataQueueLen:timeavg 	0
attr interpolationmode  sample-hold
attr title  "data queue length, timeavg"
scalar scenarioPRJP1.node[49].wlan[0].mgmt 	dropPkByQueue:count 	0
attr interpolationmode  none
attr source  dropPkByQueue
attr title  "packets dropped by queue, count"
scalar scenarioPRJP1.node[49].wlan[0].mgmt 	dropPkByQueue:sum(packetBytes) 	0
attr interpolationmode  none
attr source  dropPkByQueue
attr title  "packets dropped by queue, sum(packetBytes)"
scalar scenarioPRJP1.node[49].wlan[0].mac 	"number of received packets" 	201
scalar scenarioPRJP1.node[49].wlan[0].mac 	"number of collisions" 	1161
scalar scenarioPRJP1.node[49].wlan[0].mac 	"number of internal collisions" 	0
scalar scenarioPRJP1.node[49].wlan[0].mac 	"number of retry for AC 0" 	283
scalar scenarioPRJP1.node[49].wlan[0].mac 	"number of retry for AC 1" 	0
scalar scenarioPRJP1.node[49].wlan[0].mac 	"number of retry for AC 2" 	0
scalar scenarioPRJP1.node[49].wlan[0].mac 	"number of retry for AC 3" 	0
scalar scenarioPRJP1.node[49].wlan[0].mac 	"sent and received bits" 	1663680
scalar scenarioPRJP1.node[49].wlan[0].mac 	"sent packet within AC 0" 	49
scalar scenarioPRJP1.node[49].wlan[0].mac 	"sent packet within AC 1" 	0
scalar scenarioPRJP1.node[49].wlan[0].mac 	"sent packet within AC 2" 	0
scalar scenarioPRJP1.node[49].wlan[0].mac 	"sent packet within AC 3" 	0
scalar scenarioPRJP1.node[49].wlan[0].mac 	"sent in TXOP " 	0
scalar scenarioPRJP1.node[49].wlan[0].mac 	"sentWithoutRetry AC 0" 	48
scalar scenarioPRJP1.node[49].wlan[0].mac 	"sentWithoutRetry AC 1" 	0
scalar scenarioPRJP1.node[49].wlan[0].mac 	"sentWithoutRetry AC 2" 	0
scalar scenarioPRJP1.node[49].wlan[0].mac 	"sentWithoutRetry AC 3" 	0
scalar scenarioPRJP1.node[49].wlan[0].mac 	"numGivenUp AC 0" 	47
scalar scenarioPRJP1.node[49].wlan[0].mac 	"numGivenUp AC 1" 	0
scalar scenarioPRJP1.node[49].wlan[0].mac 	"numGivenUp AC 2" 	0
scalar scenarioPRJP1.node[49].wlan[0].mac 	"numGivenUp AC 3" 	0
scalar scenarioPRJP1.node[49].wlan[0].mac 	"numDropped AC 0" 	0
scalar scenarioPRJP1.node[49].wlan[0].mac 	"numDropped AC 1" 	0
scalar scenarioPRJP1.node[49].wlan[0].mac 	"numDropped AC 2" 	0
scalar scenarioPRJP1.node[49].wlan[0].mac 	"numDropped AC 3" 	0
scalar scenarioPRJP1.node[49].wlan[0].mac 	rcvdPkFromLL:count 	15738
attr interpolationmode  none
attr source  packetReceivedFromLower
attr title  "packets received from lower layer, count"
scalar scenarioPRJP1.node[49].wlan[0].mac 	rcvdPkFromLL:sum(packetBytes) 	2031574
attr interpolationmode  none
attr source  packetReceivedFromLower
attr title  "packets received from lower layer, sum(packetBytes)"
scalar scenarioPRJP1.node[49].wlan[0].mac 	sentDownPk:count 	2725
attr interpolationmode  none
attr source  packetSentToLower
attr title  "packets sent to lower layer, count"
scalar scenarioPRJP1.node[49].wlan[0].mac 	sentDownPk:sum(packetBytes) 	327690
attr interpolationmode  none
attr source  packetSentToLower
attr title  "packets sent to lower layer, sum(packetBytes)"
scalar scenarioPRJP1.node[49].wlan[0].mac 	rcvdPkFromHL:count 	2241
attr interpolationmode  none
attr source  packetReceivedFromUpper
attr title  "packets received from higher layer, count"
scalar scenarioPRJP1.node[49].wlan[0].mac 	rcvdPkFromHL:sum(packetBytes) 	224580
attr interpolationmode  none
attr source  packetReceivedFromUpper
attr title  "packets received from higher layer, sum(packetBytes)"
scalar scenarioPRJP1.node[49].wlan[0].mac 	passedUpPk:count 	10849
attr interpolationmode  none
attr source  packetSentToUpper
attr title  "packets passed to higher layer, count"
scalar scenarioPRJP1.node[49].wlan[0].mac 	passedUpPk:sum(packetBytes) 	978012
attr interpolationmode  none
attr source  packetSentToUpper
attr title  "packets passed to higher layer, sum(packetBytes)"
statistic scenarioPRJP1.node[49].wlan[0].radio 	radioChannel:histogram
field count 1
field mean 3
field stddev -nan
field sum 3
field sqrsum 9
field min 3
field max 3
attr interpolationmode  sample-hold
attr source  radioChannelChanged
attr title  "Radio channel, histogram"
bin	-INF	0
bin	2	0
bin	3	1
bin	4	0
scalar scenarioPRJP1.node[49].wlan[0].radio 	transmissionState:count 	10900
attr interpolationmode  sample-hold
attr source  transmissionStateChanged
attr title  "Radio transmission state, count"
scalar scenarioPRJP1.node[49].wlan[0].radio 	receptionState:count 	37258
attr interpolationmode  sample-hold
attr source  receptionStateChanged
attr title  "Radio reception state, count"
scalar scenarioPRJP1.node[49].wlan[0].radio 	radioMode:count 	5452
attr interpolationmode  sample-hold
attr source  radioModeChanged
attr title  "Radio mode, count"
statistic scenarioPRJP1.node[49].wlan[0].radio 	symbolErrorRate:histogram
field count 0
field mean -nan
field stddev -nan
field sum 0
field sqrsum 0
field min -nan
field max -nan
attr source  symbolErrorRate
attr title  "Symbol error rate, histogram"
bin	-INF	0
bin	-0.5	0
bin	-0.46666666666667	0
bin	-0.43333333333333	0
bin	-0.4	0
bin	-0.36666666666667	0
bin	-0.33333333333333	0
bin	-0.3	0
bin	-0.26666666666667	0
bin	-0.23333333333333	0
bin	-0.2	0
bin	-0.16666666666667	0
bin	-0.13333333333333	0
bin	-0.1	0
bin	-0.066666666666667	0
bin	-0.033333333333333	0
bin	0	0
bin	0.033333333333333	0
bin	0.066666666666667	0
bin	0.1	0
bin	0.13333333333333	0
bin	0.16666666666667	0
bin	0.2	0
bin	0.23333333333333	0
bin	0.26666666666667	0
bin	0.3	0
bin	0.33333333333333	0
bin	0.36666666666667	0
bin	0.4	0
bin	0.43333333333333	0
bin	0.46666666666667	0
bin	0.5	0
statistic scenarioPRJP1.node[49].wlan[0].radio 	bitErrorRate:histogram
field count 0
field mean -nan
field stddev -nan
field sum 0
field sqrsum 0
field min -nan
field max -nan
attr source  bitErrorRate
attr title  "Bit error rate, histogram"
bin	-INF	0
bin	-0.5	0
bin	-0.46666666666667	0
bin	-0.43333333333333	0
bin	-0.4	0
bin	-0.36666666666667	0
bin	-0.33333333333333	0
bin	-0.3	0
bin	-0.26666666666667	0
bin	-0.23333333333333	0
bin	-0.2	0
bin	-0.16666666666667	0
bin	-0.13333333333333	0
bin	-0.1	0
bin	-0.066666666666667	0
bin	-0.033333333333333	0
bin	0	0
bin	0.033333333333333	0
bin	0.066666666666667	0
bin	0.1	0
bin	0.13333333333333	0
bin	0.16666666666667	0
bin	0.2	0
bin	0.23333333333333	0
bin	0.26666666666667	0
bin	0.3	0
bin	0.33333333333333	0
bin	0.36666666666667	0
bin	0.4	0
bin	0.43333333333333	0
bin	0.46666666666667	0
bin	0.5	0
statistic scenarioPRJP1.node[49].wlan[0].radio 	packetErrorRate:histogram
field count 15738
field mean 0.058149040219746
field stddev 0.22807372421782
field sum 915.14959497836
field sqrsum 871.81641443538
field min 0
field max 1
attr source  packetErrorRate
attr title  "Packet error rate, histogram"
bin	-INF	0
bin	-0.5	0
bin	-0.43333333333333	0
bin	-0.36666666666667	0
bin	-0.3	0
bin	-0.23333333333333	0
bin	-0.16666666666667	0
bin	-0.1	0
bin	-0.033333333333333	14639
bin	0.033333333333333	78
bin	0.1	41
bin	0.16666666666667	21
bin	0.23333333333333	19
bin	0.3	13
bin	0.36666666666667	14
bin	0.43333333333333	15
bin	0.5	12
bin	0.56666666666667	16
bin	0.63333333333333	9
bin	0.7	9
bin	0.76666666666667	6
bin	0.83333333333333	15
bin	0.9	17
bin	0.96666666666667	814
bin	1.0333333333333	0
bin	1.1	0
bin	1.1666666666667	0
bin	1.2333333333333	0
bin	1.3	0
bin	1.3666666666667	0
bin	1.4333333333333	0
bin	1.5	0
statistic scenarioPRJP1.node[49].wlan[0].radio 	minSNIR:histogram
field count 15738
field mean 4768.7924193489
field stddev 45716.677420695
field sum 75051255.095714
field sqrsum 33248463528246
field min 0.00016962897847099
field max 753239.71879299
attr source  minSNIR
attr title  "Min SNIR, histogram"
bin	-INF	0
bin	-3378.2679481409	0
bin	-2927.641202624	0
bin	-2477.0144571072	0
bin	-2026.3877115903	0
bin	-1575.7609660734	0
bin	-1125.1342205565	0
bin	-674.50747503964	0
bin	-223.88072952276	11277
bin	226.74601599412	2178
bin	677.372761511	477
bin	1127.9995070279	268
bin	1578.6262525448	230
bin	2029.2529980616	122
bin	2479.8797435785	91
bin	2930.5064890954	57
bin	3381.1332346123	67
bin	3831.7599801292	72
bin	4282.386725646	115
bin	4733.0134711629	50
bin	5183.6402166798	27
bin	5634.2669621967	26
bin	6084.8937077136	26
bin	6535.5204532304	24
bin	6986.1471987473	20
bin	7436.7739442642	14
bin	7887.4006897811	16
bin	8338.0274352979	17
bin	8788.6541808148	13
bin	9239.2809263317	20
bin	9689.9076718486	8
bin	10140.534417365	523
scalar scenarioPRJP1.node[49].lo0.lo 	droppedPkBitError:count 	0
attr interpolationmode  none
attr source  dropPkBitError
attr title  "packets dropped/bit error, count"
scalar scenarioPRJP1.node[49].lo0.lo 	droppedPkBitError:sum(packetBytes) 	0
attr interpolationmode  none
attr source  dropPkBitError
attr title  "packets dropped/bit error, sum(packetBytes)"
scalar scenarioPRJP1.node[49].lo0.lo 	rcvdPkFromHL:count 	0
attr interpolationmode  none
attr source  packetReceivedFromUpper
attr title  "packets received from higher layer, count"
scalar scenarioPRJP1.node[49].lo0.lo 	rcvdPkFromHL:sum(packetBytes) 	0
attr interpolationmode  none
attr source  packetReceivedFromUpper
attr title  "packets received from higher layer, sum(packetBytes)"
scalar scenarioPRJP1.node[49].lo0.lo 	passedUpPk:count 	0
attr interpolationmode  none
attr source  packetSentToUpper
attr title  "packets passed to higher layer, count"
scalar scenarioPRJP1.node[49].lo0.lo 	passedUpPk:sum(packetBytes) 	0
attr interpolationmode  none
attr source  packetSentToUpper
attr title  "packets passed to higher layer, sum(packetBytes)"
scalar scenarioPRJP1.node[32].app 	"Total sent" 	603
scalar scenarioPRJP1.node[32].app 	"Total received" 	34
scalar scenarioPRJP1.node[32].app 	"Total deleted" 	2
scalar scenarioPRJP1.node[32].app 	dropPk:count 	2
attr interpolationmode  none
attr source  dropPk
attr title  "packets dropped, count"
scalar scenarioPRJP1.node[32].app 	dropPk:sum(packetBytes) 	1024
attr interpolationmode  none
attr source  dropPk
attr title  "packets dropped, sum(packetBytes)"
scalar scenarioPRJP1.node[32].app 	outOfOrderPk:count 	5
attr interpolationmode  none
attr source  outOfOrderPk
attr title  "packets received out of order, count"
scalar scenarioPRJP1.node[32].app 	outOfOrderPk:sum(packetBytes) 	2560
attr interpolationmode  none
attr source  outOfOrderPk
attr title  "packets received out of order, sum(packetBytes)"
scalar scenarioPRJP1.node[32].app 	rcvdPk:count 	34
attr interpolationmode  none
attr source  rcvdPk
attr title  "packets received, count"
scalar scenarioPRJP1.node[32].app 	rcvdPk:sum(packetBytes) 	17408
attr interpolationmode  none
attr source  rcvdPk
attr title  "packets received, sum(packetBytes)"
statistic scenarioPRJP1.node[32].app 	endToEndDelay:histogram
field count 34
field mean 0.47584473183347
field stddev 1.3277984277859
field sum 16.178720882338
field sqrsum 65.87916503908
field min 0.000971074361
field max 7.079907645731
attr interpolationmode  none
attr source  messageAge(rcvdPk)
attr title  "delay, histogram"
attr unit  s
bin	-INF	0
bin	-3.538497211324	0
bin	-3.066568106566	0
bin	-2.594639001808	0
bin	-2.12270989705	0
bin	-1.650780792292	0
bin	-1.178851687534	0
bin	-0.706922582776	0
bin	-0.234993478018	27
bin	0.23693562674	1
bin	0.708864731498	0
bin	1.180793836256	3
bin	1.652722941014	1
bin	2.124652045772	1
bin	2.59658115053	0
bin	3.068510255288	0
bin	3.540439360046	0
bin	4.012368464804	0
bin	4.484297569562	0
bin	4.95622667432	0
bin	5.428155779078	0
bin	5.900084883836	0
bin	6.372013988594	0
bin	6.843943093352	1
bin	7.31587219811	0
bin	7.787801302868	0
bin	8.259730407626	0
bin	8.731659512384	0
bin	9.203588617142	0
bin	9.6755177219	0
bin	10.147446826658	0
bin	10.619375931416	0
scalar scenarioPRJP1.node[32].app 	sentPk:count 	603
attr interpolationmode  none
attr source  sentPk
attr title  "packets sent, count"
scalar scenarioPRJP1.node[32].app 	sentPk:sum(packetBytes) 	308736
attr interpolationmode  none
attr source  sentPk
attr title  "packets sent, sum(packetBytes)"
scalar scenarioPRJP1.node[32].udp 	droppedPkBadChecksum:count 	0
attr interpolationmode  none
attr title  "packets dropped (checksum error), count"
scalar scenarioPRJP1.node[32].udp 	droppedPkWrongPort:count 	0
attr interpolationmode  none
attr title  "packets dropped (wrong port), count"
scalar scenarioPRJP1.node[32].udp 	passedUpPk:count 	41
attr interpolationmode  none
attr title  "packets passed up, count"
scalar scenarioPRJP1.node[32].udp 	rcvdPk:count 	41
attr interpolationmode  none
attr source  rcvdPk
attr title  "packets received, count"
scalar scenarioPRJP1.node[32].udp 	rcvdPk:sum(packetBytes) 	21320
attr interpolationmode  none
attr source  rcvdPk
attr title  "packets received, sum(packetBytes)"
scalar scenarioPRJP1.node[32].udp 	sentPk:count 	603
attr interpolationmode  none
attr source  sentPk
attr title  "packets sent, count"
scalar scenarioPRJP1.node[32].udp 	sentPk:sum(packetBytes) 	313560
attr interpolationmode  none
attr source  sentPk
attr title  "packets sent, sum(packetBytes)"
scalar scenarioPRJP1.node[32].networkLayer.arp 	failedARPResolution:count 	1
attr title  "ARP failed resolutions, count"
scalar scenarioPRJP1.node[32].networkLayer.arp 	completedARPResolution:count 	141
attr title  "ARP completed resolutions, count"
scalar scenarioPRJP1.node[32].networkLayer.arp 	initiatedARPResolution:count 	18
attr title  "ARP initiated resolutions, count"
scalar scenarioPRJP1.node[32].networkLayer.arp 	sentReply:count 	17
attr title  "ARP replies sent, count"
scalar scenarioPRJP1.node[32].networkLayer.arp 	sentReq:count 	21
attr title  "ARP request sent, count"
scalar scenarioPRJP1.node[32].mobility 	startTime 	2.5
scalar scenarioPRJP1.node[32].mobility 	totalTime 	241.7
scalar scenarioPRJP1.node[32].mobility 	stopTime 	244.3
scalar scenarioPRJP1.node[32].mobility 	minSpeed 	2.4760220126885e-13
scalar scenarioPRJP1.node[32].mobility 	maxSpeed 	20.489427582946
scalar scenarioPRJP1.node[32].mobility 	totalDistance 	2234.3487141896
scalar scenarioPRJP1.node[32].mobility 	totalCO2Emission 	691.15847019764
scalar scenarioPRJP1.node[32].wlan[0].mgmt 	dataQueueLen:max 	3
attr interpolationmode  sample-hold
attr title  "data queue length, max"
scalar scenarioPRJP1.node[32].wlan[0].mgmt 	dataQueueLen:timeavg 	0
attr interpolationmode  sample-hold
attr title  "data queue length, timeavg"
scalar scenarioPRJP1.node[32].wlan[0].mgmt 	dropPkByQueue:count 	0
attr interpolationmode  none
attr source  dropPkByQueue
attr title  "packets dropped by queue, count"
scalar scenarioPRJP1.node[32].wlan[0].mgmt 	dropPkByQueue:sum(packetBytes) 	0
attr interpolationmode  none
attr source  dropPkByQueue
attr title  "packets dropped by queue, sum(packetBytes)"
scalar scenarioPRJP1.node[32].wlan[0].mac 	"number of received packets" 	380
scalar scenarioPRJP1.node[32].wlan[0].mac 	"number of collisions" 	2646
scalar scenarioPRJP1.node[32].wlan[0].mac 	"number of internal collisions" 	0
scalar scenarioPRJP1.node[32].wlan[0].mac 	"number of retry for AC 0" 	617
scalar scenarioPRJP1.node[32].wlan[0].mac 	"number of retry for AC 1" 	0
scalar scenarioPRJP1.node[32].wlan[0].mac 	"number of retry for AC 2" 	0
scalar scenarioPRJP1.node[32].wlan[0].mac 	"number of retry for AC 3" 	0
scalar scenarioPRJP1.node[32].wlan[0].mac 	"sent and received bits" 	2324416
scalar scenarioPRJP1.node[32].wlan[0].mac 	"sent packet within AC 0" 	63
scalar scenarioPRJP1.node[32].wlan[0].mac 	"sent packet within AC 1" 	0
scalar scenarioPRJP1.node[32].wlan[0].mac 	"sent packet within AC 2" 	0
scalar scenarioPRJP1.node[32].wlan[0].mac 	"sent packet within AC 3" 	0
scalar scenarioPRJP1.node[32].wlan[0].mac 	"sent in TXOP " 	0
scalar scenarioPRJP1.node[32].wlan[0].mac 	"sentWithoutRetry AC 0" 	60
scalar scenarioPRJP1.node[32].wlan[0].mac 	"sentWithoutRetry AC 1" 	0
scalar scenarioPRJP1.node[32].wlan[0].mac 	"sentWithoutRetry AC 2" 	0
scalar scenarioPRJP1.node[32].wlan[0].mac 	"sentWithoutRetry AC 3" 	0
scalar scenarioPRJP1.node[32].wlan[0].mac 	"numGivenUp AC 0" 	102
scalar scenarioPRJP1.node[32].wlan[0].mac 	"numGivenUp AC 1" 	0
scalar scenarioPRJP1.node[32].wlan[0].mac 	"numGivenUp AC 2" 	0
scalar scenarioPRJP1.node[32].wlan[0].mac 	"numGivenUp AC 3" 	0
scalar scenarioPRJP1.node[32].wlan[0].mac 	"numDropped AC 0" 	0
scalar scenarioPRJP1.node[32].wlan[0].mac 	"numDropped AC 1" 	0
scalar scenarioPRJP1.node[32].wlan[0].mac 	"numDropped AC 2" 	0
scalar scenarioPRJP1.node[32].wlan[0].mac 	"numDropped AC 3" 	0
scalar scenarioPRJP1.node[32].wlan[0].mac 	rcvdPkFromLL:count 	27765
attr interpolationmode  none
attr source  packetReceivedFromLower
attr title  "packets received from lower layer, count"
scalar scenarioPRJP1.node[32].wlan[0].mac 	rcvdPkFromLL:sum(packetBytes) 	3845498
attr interpolationmode  none
attr source  packetReceivedFromLower
attr title  "packets received from lower layer, sum(packetBytes)"
scalar scenarioPRJP1.node[32].wlan[0].mac 	sentDownPk:count 	4166
attr interpolationmode  none
attr source  packetSentToLower
attr title  "packets sent to lower layer, count"
scalar scenarioPRJP1.node[32].wlan[0].mac 	sentDownPk:sum(packetBytes) 	591100
attr interpolationmode  none
attr source  packetSentToLower
attr title  "packets sent to lower layer, sum(packetBytes)"
scalar scenarioPRJP1.node[32].wlan[0].mac 	rcvdPkFromHL:count 	3169
attr interpolationmode  none
attr source  packetReceivedFromUpper
attr title  "packets received from higher layer, count"
scalar scenarioPRJP1.node[32].wlan[0].mac 	rcvdPkFromHL:sum(packetBytes) 	332316
attr interpolationmode  none
attr source  packetReceivedFromUpper
attr title  "packets received from higher layer, sum(packetBytes)"
scalar scenarioPRJP1.node[32].wlan[0].mac 	passedUpPk:count 	16860
attr interpolationmode  none
attr source  packetSentToUpper
attr title  "packets passed to higher layer, count"
scalar scenarioPRJP1.node[32].wlan[0].mac 	passedUpPk:sum(packetBytes) 	1517908
attr interpolationmode  none
attr source  packetSentToUpper
attr title  "packets passed to higher layer, sum(packetBytes)"
statistic scenarioPRJP1.node[32].wlan[0].radio 	radioChannel:histogram
field count 1
field mean 3
field stddev -nan
field sum 3
field sqrsum 9
field min 3
field max 3
attr interpolationmode  sample-hold
attr source  radioChannelChanged
attr title  "Radio channel, histogram"
bin	-INF	0
bin	2	0
bin	3	1
bin	4	0
scalar scenarioPRJP1.node[32].wlan[0].radio 	transmissionState:count 	16664
attr interpolationmode  sample-hold
attr source  transmissionStateChanged
attr title  "Radio transmission state, count"
scalar scenarioPRJP1.node[32].wlan[0].radio 	receptionState:count 	64264
attr interpolationmode  sample-hold
attr source  receptionStateChanged
attr title  "Radio reception state, count"
scalar scenarioPRJP1.node[32].wlan[0].radio 	radioMode:count 	8334
attr interpolationmode  sample-hold
attr source  radioModeChanged
attr title  "Radio mode, count"
statistic scenarioPRJP1.node[32].wlan[0].radio 	symbolErrorRate:histogram
field count 0
field mean -nan
field stddev -nan
field sum 0
field sqrsum 0
field min -nan
field max -nan
attr source  symbolErrorRate
attr title  "Symbol error rate, histogram"
bin	-INF	0
bin	-0.5	0
bin	-0.46666666666667	0
bin	-0.43333333333333	0
bin	-0.4	0
bin	-0.36666666666667	0
bin	-0.33333333333333	0
bin	-0.3	0
bin	-0.26666666666667	0
bin	-0.23333333333333	0
bin	-0.2	0
bin	-0.16666666666667	0
bin	-0.13333333333333	0
bin	-0.1	0
bin	-0.066666666666667	0
bin	-0.033333333333333	0
bin	0	0
bin	0.033333333333333	0
bin	0.066666666666667	0
bin	0.1	0
bin	0.13333333333333	0
bin	0.16666666666667	0
bin	0.2	0
bin	0.23333333333333	0
bin	0.26666666666667	0
bin	0.3	0
bin	0.33333333333333	0
bin	0.36666666666667	0
bin	0.4	0
bin	0.43333333333333	0
bin	0.46666666666667	0
bin	0.5	0
statistic scenarioPRJP1.node[32].wlan[0].radio 	bitErrorRate:histogram
field count 0
field mean -nan
field stddev -nan
field sum 0
field sqrsum 0
field min -nan
field max -nan
attr source  bitErrorRate
attr title  "Bit error rate, histogram"
bin	-INF	0
bin	-0.5	0
bin	-0.46666666666667	0
bin	-0.43333333333333	0
bin	-0.4	0
bin	-0.36666666666667	0
bin	-0.33333333333333	0
bin	-0.3	0
bin	-0.26666666666667	0
bin	-0.23333333333333	0
bin	-0.2	0
bin	-0.16666666666667	0
bin	-0.13333333333333	0
bin	-0.1	0
bin	-0.066666666666667	0
bin	-0.033333333333333	0
bin	0	0
bin	0.033333333333333	0
bin	0.066666666666667	0
bin	0.1	0
bin	0.13333333333333	0
bin	0.16666666666667	0
bin	0.2	0
bin	0.23333333333333	0
bin	0.26666666666667	0
bin	0.3	0
bin	0.33333333333333	0
bin	0.36666666666667	0
bin	0.4	0
bin	0.43333333333333	0
bin	0.46666666666667	0
bin	0.5	0
statistic scenarioPRJP1.node[32].wlan[0].radio 	packetErrorRate:histogram
field count 27765
field mean 0.075214111999291
field stddev 0.25573021120357
field sum 2088.3198196603
field sqrsum 1972.7795525708
field min 0
field max 1
attr source  packetErrorRate
attr title  "Packet error rate, histogram"
bin	-INF	0
bin	-0.5	0
bin	-0.43333333333333	0
bin	-0.36666666666667	0
bin	-0.3	0
bin	-0.23333333333333	0
bin	-0.16666666666667	0
bin	-0.1	0
bin	-0.033333333333333	25184
bin	0.033333333333333	200
bin	0.1	115
bin	0.16666666666667	63
bin	0.23333333333333	48
bin	0.3	40
bin	0.36666666666667	47
bin	0.43333333333333	26
bin	0.5	30
bin	0.56666666666667	30
bin	0.63333333333333	24
bin	0.7	39
bin	0.76666666666667	19
bin	0.83333333333333	29
bin	0.9	62
bin	0.96666666666667	1809
bin	1.0333333333333	0
bin	1.1	0
bin	1.1666666666667	0
bin	1.2333333333333	0
bin	1.3	0
bin	1.3666666666667	0
bin	1.4333333333333	0
bin	1.5	0
statistic scenarioPRJP1.node[32].wlan[0].radio 	minSNIR:histogram
field count 27765
field mean 15885.328196148
field stddev 86292.109227268
field sum 441056137.36604
field sqrsum 2.1374617527681e+14
field min 0.0012824707287522
field max 753239.71923443
attr source  minSNIR
attr title  "Min SNIR, histogram"
bin	-INF	0
bin	-3771.3628232991	0
bin	-3268.3406683676	0
bin	-2765.3185134362	0
bin	-2262.2963585048	0
bin	-1759.2742035733	0
bin	-1256.2520486419	0
bin	-753.22989371046	0
bin	-250.20773877903	17208
bin	252.81441615241	3396
bin	755.83657108384	880
bin	1258.8587260153	604
bin	1761.8808809467	363
bin	2264.9030358781	295
bin	2767.9251908096	259
bin	3270.947345741	174
bin	3773.9695006725	183
bin	4276.9916556039	160
bin	4780.0138105353	149
bin	5283.0359654668	123
bin	5786.0581203982	121
bin	6289.0802753296	105
bin	6792.1024302611	73
bin	7295.1245851925	88
bin	7798.1467401239	69
bin	8301.1688950554	63
bin	8804.1910499868	112
bin	9307.2132049182	59
bin	9810.2353598497	50
bin	10313.257514781	57
bin	10816.279669713	78
bin	11319.301824644	3096
scalar scenarioPRJP1.node[32].lo0.lo 	droppedPkBitError:count 	0
attr interpolationmode  none
attr source  dropPkBitError
attr title  "packets dropped/bit error, count"
scalar scenarioPRJP1.node[32].lo0.lo 	droppedPkBitError:sum(packetBytes) 	0
attr interpolationmode  none
attr source  dropPkBitError
attr title  "packets dropped/bit error, sum(packetBytes)"
scalar scenarioPRJP1.node[32].lo0.lo 	rcvdPkFromHL:count 	0
attr interpolationmode  none
attr source  packetReceivedFromUpper
attr title  "packets received from higher layer, count"
scalar scenarioPRJP1.node[32].lo0.lo 	rcvdPkFromHL:sum(packetBytes) 	0
attr interpolationmode  none
attr source  packetReceivedFromUpper
attr title  "packets received from higher layer, sum(packetBytes)"
scalar scenarioPRJP1.node[32].lo0.lo 	passedUpPk:count 	0
attr interpolationmode  none
attr source  packetSentToUpper
attr title  "packets passed to higher layer, count"
scalar scenarioPRJP1.node[32].lo0.lo 	passedUpPk:sum(packetBytes) 	0
attr interpolationmode  none
attr source  packetSentToUpper
attr title  "packets passed to higher layer, sum(packetBytes)"
scalar scenarioPRJP1.node[80].app 	"Total sent" 	975
scalar scenarioPRJP1.node[80].app 	"Total received" 	46
scalar scenarioPRJP1.node[80].app 	"Total deleted" 	15
scalar scenarioPRJP1.node[80].app 	dropPk:count 	15
attr interpolationmode  none
attr source  dropPk
attr title  "packets dropped, count"
scalar scenarioPRJP1.node[80].app 	dropPk:sum(packetBytes) 	7680
attr interpolationmode  none
attr source  dropPk
attr title  "packets dropped, sum(packetBytes)"
scalar scenarioPRJP1.node[80].app 	outOfOrderPk:count 	0
attr interpolationmode  none
attr source  outOfOrderPk
attr title  "packets received out of order, count"
scalar scenarioPRJP1.node[80].app 	outOfOrderPk:sum(packetBytes) 	0
attr interpolationmode  none
attr source  outOfOrderPk
attr title  "packets received out of order, sum(packetBytes)"
scalar scenarioPRJP1.node[80].app 	rcvdPk:count 	46
attr interpolationmode  none
attr source  rcvdPk
attr title  "packets received, count"
scalar scenarioPRJP1.node[80].app 	rcvdPk:sum(packetBytes) 	23552
attr interpolationmode  none
attr source  rcvdPk
attr title  "packets received, sum(packetBytes)"
statistic scenarioPRJP1.node[80].app 	endToEndDelay:histogram
field count 46
field mean 1.8662544037077
field stddev 4.616318304305
field sum 85.847702570553
field sqrsum 1119.1814138702
field min 0.000958022685
field max 18.484254081984
attr interpolationmode  none
attr source  messageAge(rcvdPk)
attr title  "delay, histogram"
attr unit  s
bin	-INF	0
bin	-9.2406900069645	0
bin	-8.0084702696779	0
bin	-6.7762505323913	0
bin	-5.5440307951047	0
bin	-4.3118110578181	0
bin	-3.0795913205315	0
bin	-1.8473715832449	0
bin	-0.6151518459583	34
bin	0.6170678913283	5
bin	1.8492876286149	0
bin	3.0815073659015	1
bin	4.3137271031881	0
bin	5.5459468404747	0
bin	6.7781665777613	1
bin	8.0103863150479	1
bin	9.2426060523345	1
bin	10.474825789621	0
bin	11.707045526908	0
bin	12.939265264194	1
bin	14.171485001481	0
bin	15.403704738767	0
bin	16.635924476054	0
bin	17.868144213341	2
bin	19.100363950627	0
bin	20.332583687914	0
bin	21.5648034252	0
bin	22.797023162487	0
bin	24.029242899774	0
bin	25.26146263706	0
bin	26.493682374347	0
bin	27.725902111633	0
scalar scenarioPRJP1.node[80].app 	sentPk:count 	975
attr interpolationmode  none
attr source  sentPk
attr title  "packets sent, count"
scalar scenarioPRJP1.node[80].app 	sentPk:sum(packetBytes) 	499200
attr interpolationmode  none
attr source  sentPk
attr title  "packets sent, sum(packetBytes)"
scalar scenarioPRJP1.node[80].udp 	droppedPkBadChecksum:count 	0
attr interpolationmode  none
attr title  "packets dropped (checksum error), count"
scalar scenarioPRJP1.node[80].udp 	droppedPkWrongPort:count 	0
attr interpolationmode  none
attr title  "packets dropped (wrong port), count"
scalar scenarioPRJP1.node[80].udp 	passedUpPk:count 	61
attr interpolationmode  none
attr title  "packets passed up, count"
scalar scenarioPRJP1.node[80].udp 	rcvdPk:count 	61
attr interpolationmode  none
attr source  rcvdPk
attr title  "packets received, count"
scalar scenarioPRJP1.node[80].udp 	rcvdPk:sum(packetBytes) 	31720
attr interpolationmode  none
attr source  rcvdPk
attr title  "packets received, sum(packetBytes)"
scalar scenarioPRJP1.node[80].udp 	sentPk:count 	975
attr interpolationmode  none
attr source  sentPk
attr title  "packets sent, count"
scalar scenarioPRJP1.node[80].udp 	sentPk:sum(packetBytes) 	507000
attr interpolationmode  none
attr source  sentPk
attr title  "packets sent, sum(packetBytes)"
scalar scenarioPRJP1.node[80].networkLayer.arp 	failedARPResolution:count 	0
attr title  "ARP failed resolutions, count"
scalar scenarioPRJP1.node[80].networkLayer.arp 	completedARPResolution:count 	178
attr title  "ARP completed resolutions, count"
scalar scenarioPRJP1.node[80].networkLayer.arp 	initiatedARPResolution:count 	20
attr title  "ARP initiated resolutions, count"
scalar scenarioPRJP1.node[80].networkLayer.arp 	sentReply:count 	20
attr title  "ARP replies sent, count"
scalar scenarioPRJP1.node[80].networkLayer.arp 	sentReq:count 	24
attr title  "ARP request sent, count"
scalar scenarioPRJP1.node[80].mobility 	startTime 	9.6
scalar scenarioPRJP1.node[80].mobility 	totalTime 	365
scalar scenarioPRJP1.node[80].mobility 	stopTime 	374.7
scalar scenarioPRJP1.node[80].mobility 	minSpeed 	2.4758289508965e-13
scalar scenarioPRJP1.node[80].mobility 	maxSpeed 	14.509909860458
scalar scenarioPRJP1.node[80].mobility 	totalDistance 	2206.7824388302
scalar scenarioPRJP1.node[80].mobility 	totalCO2Emission 	733.73558984686
scalar scenarioPRJP1.node[80].wlan[0].mgmt 	dataQueueLen:max 	11
attr interpolationmode  sample-hold
attr title  "data queue length, max"
scalar scenarioPRJP1.node[80].wlan[0].mgmt 	dataQueueLen:timeavg 	0
attr interpolationmode  sample-hold
attr title  "data queue length, timeavg"
scalar scenarioPRJP1.node[80].wlan[0].mgmt 	dropPkByQueue:count 	0
attr interpolationmode  none
attr source  dropPkByQueue
attr title  "packets dropped by queue, count"
scalar scenarioPRJP1.node[80].wlan[0].mgmt 	dropPkByQueue:sum(packetBytes) 	0
attr interpolationmode  none
attr source  dropPkByQueue
attr title  "packets dropped by queue, sum(packetBytes)"
scalar scenarioPRJP1.node[80].wlan[0].mac 	"number of received packets" 	970
scalar scenarioPRJP1.node[80].wlan[0].mac 	"number of collisions" 	4458
scalar scenarioPRJP1.node[80].wlan[0].mac 	"number of internal collisions" 	0
scalar scenarioPRJP1.node[80].wlan[0].mac 	"number of retry for AC 0" 	1250
scalar scenarioPRJP1.node[80].wlan[0].mac 	"number of retry for AC 1" 	0
scalar scenarioPRJP1.node[80].wlan[0].mac 	"number of retry for AC 2" 	0
scalar scenarioPRJP1.node[80].wlan[0].mac 	"number of retry for AC 3" 	0
scalar scenarioPRJP1.node[80].wlan[0].mac 	"sent and received bits" 	4135776
scalar scenarioPRJP1.node[80].wlan[0].mac 	"sent packet within AC 0" 	210
scalar scenarioPRJP1.node[80].wlan[0].mac 	"sent packet within AC 1" 	0
scalar scenarioPRJP1.node[80].wlan[0].mac 	"sent packet within AC 2" 	0
scalar scenarioPRJP1.node[80].wlan[0].mac 	"sent packet within AC 3" 	0
scalar scenarioPRJP1.node[80].wlan[0].mac 	"sent in TXOP " 	0
scalar scenarioPRJP1.node[80].wlan[0].mac 	"sentWithoutRetry AC 0" 	187
scalar scenarioPRJP1.node[80].wlan[0].mac 	"sentWithoutRetry AC 1" 	0
scalar scenarioPRJP1.node[80].wlan[0].mac 	"sentWithoutRetry AC 2" 	0
scalar scenarioPRJP1.node[80].wlan[0].mac 	"sentWithoutRetry AC 3" 	0
scalar scenarioPRJP1.node[80].wlan[0].mac 	"numGivenUp AC 0" 	202
scalar scenarioPRJP1.node[80].wlan[0].mac 	"numGivenUp AC 1" 	0
scalar scenarioPRJP1.node[80].wlan[0].mac 	"numGivenUp AC 2" 	0
scalar scenarioPRJP1.node[80].wlan[0].mac 	"numGivenUp AC 3" 	0
scalar scenarioPRJP1.node[80].wlan[0].mac 	"numDropped AC 0" 	0
scalar scenarioPRJP1.node[80].wlan[0].mac 	"numDropped AC 1" 	0
scalar scenarioPRJP1.node[80].wlan[0].mac 	"numDropped AC 2" 	0
scalar scenarioPRJP1.node[80].wlan[0].mac 	"numDropped AC 3" 	0
scalar scenarioPRJP1.node[80].wlan[0].mac 	rcvdPkFromLL:count 	47446
attr interpolationmode  none
attr source  packetReceivedFromLower
attr title  "packets received from lower layer, count"
scalar scenarioPRJP1.node[80].wlan[0].mac 	rcvdPkFromLL:sum(packetBytes) 	8229720
attr interpolationmode  none
attr source  packetReceivedFromLower
attr title  "packets received from lower layer, sum(packetBytes)"
scalar scenarioPRJP1.node[80].wlan[0].mac 	sentDownPk:count 	7471
attr interpolationmode  none
attr source  packetSentToLower
attr title  "packets sent to lower layer, count"
scalar scenarioPRJP1.node[80].wlan[0].mac 	sentDownPk:sum(packetBytes) 	1188528
attr interpolationmode  none
attr source  packetSentToLower
attr title  "packets sent to lower layer, sum(packetBytes)"
scalar scenarioPRJP1.node[80].wlan[0].mac 	rcvdPkFromHL:count 	5251
attr interpolationmode  none
attr source  packetReceivedFromUpper
attr title  "packets received from higher layer, count"
scalar scenarioPRJP1.node[80].wlan[0].mac 	rcvdPkFromHL:sum(packetBytes) 	608896
attr interpolationmode  none
attr source  packetReceivedFromUpper
attr title  "packets received from higher layer, sum(packetBytes)"
scalar scenarioPRJP1.node[80].wlan[0].mac 	passedUpPk:count 	25869
attr interpolationmode  none
attr source  packetSentToUpper
attr title  "packets passed to higher layer, count"
scalar scenarioPRJP1.node[80].wlan[0].mac 	passedUpPk:sum(packetBytes) 	2391632
attr interpolationmode  none
attr source  packetSentToUpper
attr title  "packets passed to higher layer, sum(packetBytes)"
statistic scenarioPRJP1.node[80].wlan[0].radio 	radioChannel:histogram
field count 1
field mean 3
field stddev -nan
field sum 3
field sqrsum 9
field min 3
field max 3
attr interpolationmode  sample-hold
attr source  radioChannelChanged
attr title  "Radio channel, histogram"
bin	-INF	0
bin	2	0
bin	3	1
bin	4	0
scalar scenarioPRJP1.node[80].wlan[0].radio 	transmissionState:count 	29884
attr interpolationmode  sample-hold
attr source  transmissionStateChanged
attr title  "Radio transmission state, count"
scalar scenarioPRJP1.node[80].wlan[0].radio 	receptionState:count 	110371
attr interpolationmode  sample-hold
attr source  receptionStateChanged
attr title  "Radio reception state, count"
scalar scenarioPRJP1.node[80].wlan[0].radio 	radioMode:count 	14944
[...]
scalar scenarioPRJP1.node[74].wlan[0].mac 	passedUpPk:sum(packetBytes) 	7077100
attr interpolationmode  none
attr source  packetSentToUpper
attr title  "packets passed to higher layer, sum(packetBytes)"
statistic scenarioPRJP1.node[74].wlan[0].radio 	radioChannel:histogram
field count 1
field mean 3
field stddev -nan
field sum 3
field sqrsum 9
field min 3
field max 3
attr interpolationmode  sample-hold
attr source  radioChannelChanged
attr title  "Radio channel, histogram"
bin	-INF	0
bin	2	0
bin	3	1
bin	4	0
scalar scenarioPRJP1.node[74].wlan[0].radio 	transmissionState:count 	108980
attr interpolationmode  sample-hold
attr source  transmissionStateChanged
attr title  "Radio transmission state, count"
scalar scenarioPRJP1.node[74].wlan[0].radio 	receptionState:count 	344846
attr interpolationmode  sample-hold
attr source  receptionStateChanged
attr title  "Radio reception state, count"
scalar scenarioPRJP1.node[74].wlan[0].radio 	radioMode:count 	54492
attr interpolationmode  sample-hold
attr source  radioModeChanged
attr title  "Radio mode, count"
statistic scenarioPRJP1.node[74].wlan[0].radio 	symbolErrorRate:histogram
field count 0
field mean -nan
field stddev -nan
field sum 0
field sqrsum 0
field min -nan
field max -nan
attr source  symbolErrorRate
attr title  "Symbol error rate, histogram"
bin	-INF	0
bin	-0.5	0
bin	-0.46666666666667	0
bin	-0.43333333333333	0
bin	-0.4	0
bin	-0.36666666666667	0
bin	-0.33333333333333	0
bin	-0.3	0
bin	-0.26666666666667	0
bin	-0.23333333333333	0
bin	-0.2	0
bin	-0.16666666666667	0
bin	-0.13333333333333	0
bin	-0.1	0
bin	-0.066666666666667	0
bin	-0.033333333333333	0
bin	0	0
bin	0.033333333333333	0
bin	0.066666666666667	0
bin	0.1	0
bin	0.13333333333333	0
bin	0.16666666666667	0
bin	0.2	0
bin	0.23333333333333	0
bin	0.26666666666667	0
bin	0.3	0
bin	0.33333333333333	0
bin	0.36666666666667	0
bin	0.4	0
bin	0.43333333333333	0
bin	0.46666666666667	0
bin	0.5	0
statistic scenarioPRJP1.node[74].wlan[0].radio 	bitErrorRate:histogram
field count 0
field mean -nan
field stddev -nan
field sum 0
field sqrsum 0
field min -nan
field max -nan
attr source  bitErrorRate
attr title  "Bit error rate, histogram"
bin	-INF	0
bin	-0.5	0
bin	-0.46666666666667	0
bin	-0.43333333333333	0
bin	-0.4	0
bin	-0.36666666666667	0
bin	-0.33333333333333	0
bin	-0.3	0
bin	-0.26666666666667	0
bin	-0.23333333333333	0
bin	-0.2	0
bin	-0.16666666666667	0
bin	-0.13333333333333	0
bin	-0.1	0
bin	-0.066666666666667	0
bin	-0.033333333333333	0
bin	0	0
bin	0.033333333333333	0
bin	0.066666666666667	0
bin	0.1	0
bin	0.13333333333333	0
bin	0.16666666666667	0
bin	0.2	0
bin	0.23333333333333	0
bin	0.26666666666667	0
bin	0.3	0
bin	0.33333333333333	0
bin	0.36666666666667	0
bin	0.4	0
bin	0.43333333333333	0
bin	0.46666666666667	0
bin	0.5	0
statistic scenarioPRJP1.node[74].wlan[0].radio 	packetErrorRate:histogram
field count 144077
field mean 0.10936504069663
field stddev 0.30376913163737
field sum 15756.986968448
field sqrsum 15017.97516149
field min 0
field max 1
attr source  packetErrorRate
attr title  "Packet error rate, histogram"
bin	-INF	0
bin	-0.5	0
bin	-0.43333333333333	0
bin	-0.36666666666667	0
bin	-0.3	0
bin	-0.23333333333333	0
bin	-0.16666666666667	0
bin	-0.1	0
bin	-0.033333333333333	125168
bin	0.033333333333333	1391
bin	0.1	592
bin	0.16666666666667	418
bin	0.23333333333333	314
bin	0.3	277
bin	0.36666666666667	237
bin	0.43333333333333	179
bin	0.5	179
bin	0.56666666666667	214
bin	0.63333333333333	175
bin	0.7	177
bin	0.76666666666667	202
bin	0.83333333333333	275
bin	0.9	368
bin	0.96666666666667	13911
bin	1.0333333333333	0
bin	1.1	0
bin	1.1666666666667	0
bin	1.2333333333333	0
bin	1.3	0
bin	1.3666666666667	0
bin	1.4333333333333	0
bin	1.5	0
statistic scenarioPRJP1.node[74].wlan[0].radio 	minSNIR:histogram
field count 144077
field mean 5398.9054362256
field stddev 43855.179805968
field sum 777858098.53508
field sqrsum 2.8129760995046e+14
field min 0.00017003474417502
field max 1507967.0991953
attr source  minSNIR
attr title  "Min SNIR, histogram"
bin	-INF	0
bin	-1028.6663466939	0
bin	-891.31040726547	0
bin	-753.954467837	0
bin	-616.59852840854	0
bin	-479.24258898008	0
bin	-341.88664955162	0
bin	-204.53071012315	0
bin	-67.174770694691	81894
bin	70.181168733772	21692
bin	207.53710816223	9106
bin	344.8930475907	4152
bin	482.24898701916	2635
bin	619.60492644762	1679
bin	756.96086587609	1505
bin	894.31680530455	1047
bin	1031.672744733	921
bin	1169.0286841615	740
bin	1306.3846235899	744
bin	1443.7405630184	667
bin	1581.0965024469	598
bin	1718.4524418753	492
bin	1855.8083813038	487
bin	1993.1643207322	389
bin	2130.5202601607	410
bin	2267.8761995892	362
bin	2405.2321390176	348
bin	2542.5880784461	297
bin	2679.9440178746	370
bin	2817.299957303	268
bin	2954.6558967315	303
bin	3092.01183616	12971
scalar scenarioPRJP1.node[74].lo0.lo 	droppedPkBitError:count 	0
attr interpolationmode  none
attr source  dropPkBitError
attr title  "packets dropped/bit error, count"
scalar scenarioPRJP1.node[74].lo0.lo 	droppedPkBitError:sum(packetBytes) 	0
attr interpolationmode  none
attr source  dropPkBitError
attr title  "packets dropped/bit error, sum(packetBytes)"
scalar scenarioPRJP1.node[74].lo0.lo 	rcvdPkFromHL:count 	1
attr interpolationmode  none
attr source  packetReceivedFromUpper
attr title  "packets received from higher layer, count"
scalar scenarioPRJP1.node[74].lo0.lo 	rcvdPkFromHL:sum(packetBytes) 	56
attr interpolationmode  none
attr source  packetReceivedFromUpper
attr title  "packets received from higher layer, sum(packetBytes)"
scalar scenarioPRJP1.node[74].lo0.lo 	passedUpPk:count 	1
attr interpolationmode  none
attr source  packetSentToUpper
attr title  "packets passed to higher layer, count"
scalar scenarioPRJP1.node[74].lo0.lo 	passedUpPk:sum(packetBytes) 	56
attr interpolationmode  none
attr source  packetSentToUpper
attr title  "packets passed to higher layer, sum(packetBytes)"
scalar scenarioPRJP1.node[94].app 	"Total sent" 	2612
scalar scenarioPRJP1.node[94].app 	"Total received" 	143
scalar scenarioPRJP1.node[94].app 	"Total deleted" 	135
scalar scenarioPRJP1.node[94].app 	dropPk:count 	135
attr interpolationmode  none
attr source  dropPk
attr title  "packets dropped, count"
scalar scenarioPRJP1.node[94].app 	dropPk:sum(packetBytes) 	69120
attr interpolationmode  none
attr source  dropPk
attr title  "packets dropped, sum(packetBytes)"
scalar scenarioPRJP1.node[94].app 	outOfOrderPk:count 	11
attr interpolationmode  none
attr source  outOfOrderPk
attr title  "packets received out of order, count"
scalar scenarioPRJP1.node[94].app 	outOfOrderPk:sum(packetBytes) 	5632
attr interpolationmode  none
attr source  outOfOrderPk
attr title  "packets received out of order, sum(packetBytes)"
scalar scenarioPRJP1.node[94].app 	rcvdPk:count 	143
attr interpolationmode  none
attr source  rcvdPk
attr title  "packets received, count"
scalar scenarioPRJP1.node[94].app 	rcvdPk:sum(packetBytes) 	73216
attr interpolationmode  none
attr source  rcvdPk
attr title  "packets received, sum(packetBytes)"
statistic scenarioPRJP1.node[94].app 	endToEndDelay:histogram
field count 143
field mean 1.7291869705291
field stddev 4.1915760323652
field sum 247.27373678566
field sqrsum 2922.4244919878
field min 0.000945534815
field max 19.953952039619
attr interpolationmode  none
attr source  messageAge(rcvdPk)
attr title  "delay, histogram"
attr unit  s
bin	-INF	0
bin	-9.9755389000675	0
bin	-8.6453393027481	0
bin	-7.3151397054287	0
bin	-5.9849401081093	0
bin	-4.6547405107899	0
bin	-3.3245409134705	0
bin	-1.9943413161511	0
bin	-0.6641417188317	112
bin	0.6660578784877	6
bin	1.9962574758071	3
bin	3.3264570731265	5
bin	4.6566566704459	2
bin	5.9868562677653	1
bin	7.3170558650847	1
bin	8.6472554624041	1
bin	9.9774550597235	0
bin	11.307654657043	3
bin	12.637854254362	2
bin	13.968053851682	4
bin	15.298253449001	1
bin	16.62845304632	1
bin	17.95865264364	0
bin	19.288852240959	1
bin	20.619051838279	0
bin	21.949251435598	0
bin	23.279451032918	0
bin	24.609650630237	0
bin	25.939850227556	0
bin	27.270049824876	0
bin	28.600249422195	0
bin	29.930449019515	0
scalar scenarioPRJP1.node[94].app 	sentPk:count 	2612
attr interpolationmode  none
attr source  sentPk
attr title  "packets sent, count"
scalar scenarioPRJP1.node[94].app 	sentPk:sum(packetBytes) 	1337344
attr interpolationmode  none
attr source  sentPk
attr title  "packets sent, sum(packetBytes)"
scalar scenarioPRJP1.node[94].udp 	droppedPkBadChecksum:count 	0
attr interpolationmode  none
attr title  "packets dropped (checksum error), count"
scalar scenarioPRJP1.node[94].udp 	droppedPkWrongPort:count 	0
attr interpolationmode  none
attr title  "packets dropped (wrong port), count"
scalar scenarioPRJP1.node[94].udp 	passedUpPk:count 	289
attr interpolationmode  none
attr title  "packets passed up, count"
scalar scenarioPRJP1.node[94].udp 	rcvdPk:count 	289
attr interpolationmode  none
attr source  rcvdPk
attr title  "packets received, count"
scalar scenarioPRJP1.node[94].udp 	rcvdPk:sum(packetBytes) 	150280
attr interpolationmode  none
attr source  rcvdPk
attr title  "packets received, sum(packetBytes)"
scalar scenarioPRJP1.node[94].udp 	sentPk:count 	2612
attr interpolationmode  none
attr source  sentPk
attr title  "packets sent, count"
scalar scenarioPRJP1.node[94].udp 	sentPk:sum(packetBytes) 	1358240
attr interpolationmode  none
attr source  sentPk
attr title  "packets sent, sum(packetBytes)"
scalar scenarioPRJP1.node[94].networkLayer.arp 	failedARPResolution:count 	5
attr title  "ARP failed resolutions, count"
scalar scenarioPRJP1.node[94].networkLayer.arp 	completedARPResolution:count 	482
attr title  "ARP completed resolutions, count"
scalar scenarioPRJP1.node[94].networkLayer.arp 	initiatedARPResolution:count 	70
attr title  "ARP initiated resolutions, count"
scalar scenarioPRJP1.node[94].networkLayer.arp 	sentReply:count 	53
attr title  "ARP replies sent, count"
scalar scenarioPRJP1.node[94].networkLayer.arp 	sentReq:count 	98
attr title  "ARP request sent, count"
scalar scenarioPRJP1.node[94].mobility 	startTime 	9.7
scalar scenarioPRJP1.node[94].mobility 	totalTime 	940.2
scalar scenarioPRJP1.node[94].mobility 	stopTime 	950
scalar scenarioPRJP1.node[94].mobility 	minSpeed 	2.4755607675056e-13
scalar scenarioPRJP1.node[94].mobility 	maxSpeed 	15.057066090911
scalar scenarioPRJP1.node[94].mobility 	totalDistance 	8549.4024592352
scalar scenarioPRJP1.node[94].mobility 	totalCO2Emission 	2158.3725560818
scalar scenarioPRJP1.node[94].wlan[0].mgmt 	dataQueueLen:max 	17
attr interpolationmode  sample-hold
attr title  "data queue length, max"
scalar scenarioPRJP1.node[94].wlan[0].mgmt 	dataQueueLen:timeavg 	0
attr interpolationmode  sample-hold
attr title  "data queue length, timeavg"
scalar scenarioPRJP1.node[94].wlan[0].mgmt 	dropPkByQueue:count 	0
attr interpolationmode  none
attr source  dropPkByQueue
attr title  "packets dropped by queue, count"
scalar scenarioPRJP1.node[94].wlan[0].mgmt 	dropPkByQueue:sum(packetBytes) 	0
attr interpolationmode  none
attr source  dropPkByQueue
attr title  "packets dropped by queue, sum(packetBytes)"
scalar scenarioPRJP1.node[94].wlan[0].mac 	"number of received packets" 	5031
scalar scenarioPRJP1.node[94].wlan[0].mac 	"number of collisions" 	20421
scalar scenarioPRJP1.node[94].wlan[0].mac 	"number of internal collisions" 	0
scalar scenarioPRJP1.node[94].wlan[0].mac 	"number of retry for AC 0" 	6153
scalar scenarioPRJP1.node[94].wlan[0].mac 	"number of retry for AC 1" 	6
scalar scenarioPRJP1.node[94].wlan[0].mac 	"number of retry for AC 2" 	0
scalar scenarioPRJP1.node[94].wlan[0].mac 	"number of retry for AC 3" 	0
scalar scenarioPRJP1.node[94].wlan[0].mac 	"sent and received bits" 	14125504
scalar scenarioPRJP1.node[94].wlan[0].mac 	"sent packet within AC 0" 	1434
scalar scenarioPRJP1.node[94].wlan[0].mac 	"sent packet within AC 1" 	0
scalar scenarioPRJP1.node[94].wlan[0].mac 	"sent packet within AC 2" 	0
scalar scenarioPRJP1.node[94].wlan[0].mac 	"sent packet within AC 3" 	0
scalar scenarioPRJP1.node[94].wlan[0].mac 	"sent in TXOP " 	0
scalar scenarioPRJP1.node[94].wlan[0].mac 	"sentWithoutRetry AC 0" 	1316
scalar scenarioPRJP1.node[94].wlan[0].mac 	"sentWithoutRetry AC 1" 	0
scalar scenarioPRJP1.node[94].wlan[0].mac 	"sentWithoutRetry AC 2" 	0
scalar scenarioPRJP1.node[94].wlan[0].mac 	"sentWithoutRetry AC 3" 	0
scalar scenarioPRJP1.node[94].wlan[0].mac 	"numGivenUp AC 0" 	992
scalar scenarioPRJP1.node[94].wlan[0].mac 	"numGivenUp AC 1" 	1
scalar scenarioPRJP1.node[94].wlan[0].mac 	"numGivenUp AC 2" 	0
scalar scenarioPRJP1.node[94].wlan[0].mac 	"numGivenUp AC 3" 	0
scalar scenarioPRJP1.node[94].wlan[0].mac 	"numDropped AC 0" 	0
scalar scenarioPRJP1.node[94].wlan[0].mac 	"numDropped AC 1" 	0
scalar scenarioPRJP1.node[94].wlan[0].mac 	"numDropped AC 2" 	0
scalar scenarioPRJP1.node[94].wlan[0].mac 	"numDropped AC 3" 	0
scalar scenarioPRJP1.node[94].wlan[0].mac 	rcvdPkFromLL:count 	144910
attr interpolationmode  none
attr source  packetReceivedFromLower
attr title  "packets received from lower layer, count"
scalar scenarioPRJP1.node[94].wlan[0].mac 	rcvdPkFromLL:sum(packetBytes) 	24084876
attr interpolationmode  none
attr source  packetReceivedFromLower
attr title  "packets received from lower layer, sum(packetBytes)"
scalar scenarioPRJP1.node[94].wlan[0].mac 	sentDownPk:count 	29653
attr interpolationmode  none
attr source  packetSentToLower
attr title  "packets sent to lower layer, count"
scalar scenarioPRJP1.node[94].wlan[0].mac 	sentDownPk:sum(packetBytes) 	4866186
attr interpolationmode  none
attr source  packetSentToLower
attr title  "packets sent to lower layer, sum(packetBytes)"
scalar scenarioPRJP1.node[94].wlan[0].mac 	rcvdPkFromHL:count 	18463
attr interpolationmode  none
attr source  packetReceivedFromUpper
attr title  "packets received from higher layer, count"
scalar scenarioPRJP1.node[94].wlan[0].mac 	rcvdPkFromHL:sum(packetBytes) 	2188200
attr interpolationmode  none
attr source  packetReceivedFromUpper
attr title  "packets received from higher layer, sum(packetBytes)"
scalar scenarioPRJP1.node[94].wlan[0].mac 	passedUpPk:count 	70287
attr interpolationmode  none
attr source  packetSentToUpper
attr title  "packets passed to higher layer, count"
scalar scenarioPRJP1.node[94].wlan[0].mac 	passedUpPk:sum(packetBytes) 	6680412
attr interpolationmode  none
attr source  packetSentToUpper
attr title  "packets passed to higher layer, sum(packetBytes)"
statistic scenarioPRJP1.node[94].wlan[0].radio 	radioChannel:histogram
field count 1
field mean 3
field stddev -nan
field sum 3
field sqrsum 9
field min 3
field max 3
attr interpolationmode  sample-hold
attr source  radioChannelChanged
attr title  "Radio channel, histogram"
bin	-INF	0
bin	2	0
bin	3	1
bin	4	0
scalar scenarioPRJP1.node[94].wlan[0].radio 	transmissionState:count 	118612
attr interpolationmode  sample-hold
attr source  transmissionStateChanged
attr title  "Radio transmission state, count"
scalar scenarioPRJP1.node[94].wlan[0].radio 	receptionState:count 	351965
attr interpolationmode  sample-hold
attr source  receptionStateChanged
attr title  "Radio reception state, count"
scalar scenarioPRJP1.node[94].wlan[0].radio 	radioMode:count 	59308
attr interpolationmode  sample-hold
attr source  radioModeChanged
attr title  "Radio mode, count"
statistic scenarioPRJP1.node[94].wlan[0].radio 	symbolErrorRate:histogram
field count 0
field mean -nan
field stddev -nan
field sum 0
field sqrsum 0
field min -nan
field max -nan
attr source  symbolErrorRate
attr title  "Symbol error rate, histogram"
bin	-INF	0
bin	-0.5	0
bin	-0.46666666666667	0
bin	-0.43333333333333	0
bin	-0.4	0
bin	-0.36666666666667	0
bin	-0.33333333333333	0
bin	-0.3	0
bin	-0.26666666666667	0
bin	-0.23333333333333	0
bin	-0.2	0
bin	-0.16666666666667	0
bin	-0.13333333333333	0
bin	-0.1	0
bin	-0.066666666666667	0
bin	-0.033333333333333	0
bin	0	0
bin	0.033333333333333	0
bin	0.066666666666667	0
bin	0.1	0
bin	0.13333333333333	0
bin	0.16666666666667	0
bin	0.2	0
bin	0.23333333333333	0
bin	0.26666666666667	0
bin	0.3	0
bin	0.33333333333333	0
bin	0.36666666666667	0
bin	0.4	0
bin	0.43333333333333	0
bin	0.46666666666667	0
bin	0.5	0
statistic scenarioPRJP1.node[94].wlan[0].radio 	bitErrorRate:histogram
field count 0
field mean -nan
field stddev -nan
field sum 0
field sqrsum 0
field min -nan
field max -nan
attr source  bitErrorRate
attr title  "Bit error rate, histogram"
bin	-INF	0
bin	-0.5	0
bin	-0.46666666666667	0
bin	-0.43333333333333	0
bin	-0.4	0
bin	-0.36666666666667	0
bin	-0.33333333333333	0
bin	-0.3	0
bin	-0.26666666666667	0
bin	-0.23333333333333	0
bin	-0.2	0
bin	-0.16666666666667	0
bin	-0.13333333333333	0
bin	-0.1	0
bin	-0.066666666666667	0
bin	-0.033333333333333	0
bin	0	0
bin	0.033333333333333	0
bin	0.066666666666667	0
bin	0.1	0
bin	0.13333333333333	0
bin	0.16666666666667	0
bin	0.2	0
bin	0.23333333333333	0
bin	0.26666666666667	0
bin	0.3	0
bin	0.33333333333333	0
bin	0.36666666666667	0
bin	0.4	0
bin	0.43333333333333	0
bin	0.46666666666667	0
bin	0.5	0
statistic scenarioPRJP1.node[94].wlan[0].radio 	packetErrorRate:histogram
field count 144910
field mean 0.11877274698417
field stddev 0.31492674763047
field sum 17211.358765476
field sqrsum 16416.149258076
field min 0
field max 1
attr source  packetErrorRate
attr title  "Packet error rate, histogram"
bin	-INF	0
bin	-0.5	0
bin	-0.43333333333333	0
bin	-0.36666666666667	0
bin	-0.3	0
bin	-0.23333333333333	0
bin	-0.16666666666667	0
bin	-0.1	0
bin	-0.033333333333333	124247
bin	0.033333333333333	1588
bin	0.1	630
bin	0.16666666666667	428
bin	0.23333333333333	334
bin	0.3	287
bin	0.36666666666667	244
bin	0.43333333333333	214
bin	0.5	200
bin	0.56666666666667	222
bin	0.63333333333333	209
bin	0.7	204
bin	0.76666666666667	224
bin	0.83333333333333	241
bin	0.9	385
bin	0.96666666666667	15253
bin	1.0333333333333	0
bin	1.1	0
bin	1.1666666666667	0
bin	1.2333333333333	0
bin	1.3	0
bin	1.3666666666667	0
bin	1.4333333333333	0
bin	1.5	0
statistic scenarioPRJP1.node[94].wlan[0].radio 	minSNIR:histogram
field count 144910
field mean 4316.754582225
field stddev 41806.113219835
field sum 625540906.51023
field sqrsum 2.5596517109392e+14
field min 0.00016879943330393
field max 952192.31356246
attr source  minSNIR
attr title  "Min SNIR, histogram"
bin	-INF	0
bin	-311.33854398486	0
bin	-269.73429927822	0
bin	-228.13005457159	0
bin	-186.52580986495	0
bin	-144.92156515832	0
bin	-103.31732045168	0
bin	-61.71307574505	0
bin	-20.108831038416	67051
bin	21.495413668218	18487
bin	63.099658374852	6811
bin	104.70390308149	6454
bin	146.30814778812	6513
bin	187.91239249476	4482
bin	229.51663720139	3119
bin	271.12088190802	2743
bin	312.72512661466	2022
bin	354.32937132129	1791
bin	395.93361602793	1483
bin	437.53786073456	1122
bin	479.14210544119	863
bin	520.74635014783	798
bin	562.35059485446	759
bin	603.9548395611	669
bin	645.55908426773	605
bin	687.16332897437	534
bin	728.767573681	447
bin	770.37181838763	391
bin	811.97606309427	374
bin	853.5803078009	589
bin	895.18455250754	376
bin	936.78879721417	16427
scalar scenarioPRJP1.node[94].lo0.lo 	droppedPkBitError:count 	0
attr interpolationmode  none
attr source  dropPkBitError
attr title  "packets dropped/bit error, count"
scalar scenarioPRJP1.node[94].lo0.lo 	droppedPkBitError:sum(packetBytes) 	0
attr interpolationmode  none
attr source  dropPkBitError
attr title  "packets dropped/bit error, sum(packetBytes)"
scalar scenarioPRJP1.node[94].lo0.lo 	rcvdPkFromHL:count 	1
attr interpolationmode  none
attr source  packetReceivedFromUpper
attr title  "packets received from higher layer, count"
scalar scenarioPRJP1.node[94].lo0.lo 	rcvdPkFromHL:sum(packetBytes) 	56
attr interpolationmode  none
attr source  packetReceivedFromUpper
attr title  "packets received from higher layer, sum(packetBytes)"
scalar scenarioPRJP1.node[94].lo0.lo 	passedUpPk:count 	1
attr interpolationmode  none
attr source  packetSentToUpper
attr title  "packets passed to higher layer, count"
scalar scenarioPRJP1.node[94].lo0.lo 	passedUpPk:sum(packetBytes) 	56
attr interpolationmode  none
attr source  packetSentToUpper
attr title  "packets passed to higher layer, sum(packetBytes)"
