version 2
run AODVRouting-TRG-100n-14-20150819-02:17:38-5552
attr configname AODVRouting-TRG-100n
attr datetime 20150819-02:17:38
attr experiment AODVRouting-TRG-100n
attr inifile omnetpp.ini
attr iterationvars ""
attr iterationvars2 $repetition=14
attr measurement ""
attr network Prj_Part1_propag.scenarioPRJP1
attr processid 5552
attr repetition 14
attr replication #14
attr resultdir results
attr runnumber 14
attr seedset 14

scalar scenarioPRJP1.radioMedium.propagation 	"Arrival computation count" 	364974093
scalar scenarioPRJP1.radioMedium 	"transmission count" 	3686607
scalar scenarioPRJP1.radioMedium 	"radio frame send count" 	364974093
scalar scenarioPRJP1.radioMedium 	"reception computation count" 	363282179
scalar scenarioPRJP1.radioMedium 	"interference computation count" 	1009583634
scalar scenarioPRJP1.radioMedium 	"reception decision computation count" 	23925776
scalar scenarioPRJP1.radioMedium 	"listening decision computation count" 	626404750
scalar scenarioPRJP1.radioMedium 	"reception cache hit" 	85.961524091675
attr unit  %
scalar scenarioPRJP1.radioMedium 	"interference cache hit" 	50
attr unit  %
scalar scenarioPRJP1.radioMedium 	"noise cache hit" 	0
attr unit  %
scalar scenarioPRJP1.radioMedium 	"snir cache hit" 	0
attr unit  %
scalar scenarioPRJP1.radioMedium 	"reception decision cache hit" 	0
attr unit  %
scalar scenarioPRJP1.node[0].app 	"Total sent" 	2613
scalar scenarioPRJP1.node[0].app 	"Total received" 	174
scalar scenarioPRJP1.node[0].app 	"Total deleted" 	109
scalar scenarioPRJP1.node[0].app 	dropPk:count 	109
attr interpolationmode  none
attr source  dropPk
attr title  "packets dropped, count"
scalar scenarioPRJP1.node[0].app 	dropPk:sum(packetBytes) 	55808
attr interpolationmode  none
attr source  dropPk
attr title  "packets dropped, sum(packetBytes)"
scalar scenarioPRJP1.node[0].app 	outOfOrderPk:count 	44
attr interpolationmode  none
attr source  outOfOrderPk
attr title  "packets received out of order, count"
scalar scenarioPRJP1.node[0].app 	outOfOrderPk:sum(packetBytes) 	22528
attr interpolationmode  none
attr source  outOfOrderPk
attr title  "packets received out of order, sum(packetBytes)"
scalar scenarioPRJP1.node[0].app 	rcvdPk:count 	174
attr interpolationmode  none
attr source  rcvdPk
attr title  "packets received, count"
scalar scenarioPRJP1.node[0].app 	rcvdPk:sum(packetBytes) 	89088
attr interpolationmode  none
attr source  rcvdPk
attr title  "packets received, sum(packetBytes)"
statistic scenarioPRJP1.node[0].app 	endToEndDelay:histogram
field count 174
field mean 1.1860957254946
field stddev 3.3316694451838
field sum 206.38065623606
field sqrsum 2165.0908976974
field min 0.000945125432
field max 17.562599696729
attr interpolationmode  none
attr source  messageAge(rcvdPk)
attr title  "delay, histogram"
attr unit  s
bin	-INF	0
bin	-8.7798821602165	0
bin	-7.6091051887967	0
bin	-6.4383282173769	0
bin	-5.2675512459571	0
bin	-4.0967742745373	0
bin	-2.9259973031175	0
bin	-1.7552203316977	0
bin	-0.5844433602779	143
bin	0.5863336111419	6
bin	1.7571105825617	4
bin	2.9278875539815	4
bin	4.0986645254013	1
bin	5.2694414968211	3
bin	6.4402184682409	2
bin	7.6109954396607	1
bin	8.7817724110805	2
bin	9.9525493825003	1
bin	11.12332635392	0
bin	12.29410332534	1
bin	13.46488029676	5
bin	14.63565726818	0
bin	15.806434239599	0
bin	16.977211211019	1
bin	18.147988182439	0
bin	19.318765153859	0
bin	20.489542125279	0
bin	21.660319096698	0
bin	22.831096068118	0
bin	24.001873039538	0
bin	25.172650010958	0
bin	26.343426982377	0
scalar scenarioPRJP1.node[0].app 	sentPk:count 	2613
attr interpolationmode  none
attr source  sentPk
attr title  "packets sent, count"
scalar scenarioPRJP1.node[0].app 	sentPk:sum(packetBytes) 	1337856
attr interpolationmode  none
attr source  sentPk
attr title  "packets sent, sum(packetBytes)"
scalar scenarioPRJP1.node[0].udp 	droppedPkBadChecksum:count 	0
attr interpolationmode  none
attr title  "packets dropped (checksum error), count"
scalar scenarioPRJP1.node[0].udp 	droppedPkWrongPort:count 	0
attr interpolationmode  none
attr title  "packets dropped (wrong port), count"
scalar scenarioPRJP1.node[0].udp 	passedUpPk:count 	327
attr interpolationmode  none
attr title  "packets passed up, count"
scalar scenarioPRJP1.node[0].udp 	rcvdPk:count 	327
attr interpolationmode  none
attr source  rcvdPk
attr title  "packets received, count"
scalar scenarioPRJP1.node[0].udp 	rcvdPk:sum(packetBytes) 	170040
attr interpolationmode  none
attr source  rcvdPk
attr title  "packets received, sum(packetBytes)"
scalar scenarioPRJP1.node[0].udp 	sentPk:count 	2613
attr interpolationmode  none
attr source  sentPk
attr title  "packets sent, count"
scalar scenarioPRJP1.node[0].udp 	sentPk:sum(packetBytes) 	1358760
attr interpolationmode  none
attr source  sentPk
attr title  "packets sent, sum(packetBytes)"
scalar scenarioPRJP1.node[0].networkLayer.arp 	failedARPResolution:count 	8
attr title  "ARP failed resolutions, count"
scalar scenarioPRJP1.node[0].networkLayer.arp 	completedARPResolution:count 	894
attr title  "ARP completed resolutions, count"
scalar scenarioPRJP1.node[0].networkLayer.arp 	initiatedARPResolution:count 	90
attr title  "ARP initiated resolutions, count"
scalar scenarioPRJP1.node[0].networkLayer.arp 	sentReply:count 	71
attr title  "ARP replies sent, count"
scalar scenarioPRJP1.node[0].networkLayer.arp 	sentReq:count 	135
attr title  "ARP request sent, count"
scalar scenarioPRJP1.node[0].mobility 	startTime 	0.1
scalar scenarioPRJP1.node[0].mobility 	totalTime 	949.8
scalar scenarioPRJP1.node[0].mobility 	stopTime 	950
scalar scenarioPRJP1.node[0].mobility 	minSpeed 	2.4757435461299e-13
scalar scenarioPRJP1.node[0].mobility 	maxSpeed 	19.973278579907
scalar scenarioPRJP1.node[0].mobility 	totalDistance 	9955.2729404294
scalar scenarioPRJP1.node[0].mobility 	totalCO2Emission 	2936.6565251609
scalar scenarioPRJP1.node[0].wlan[0].mgmt 	dataQueueLen:max 	15
attr interpolationmode  sample-hold
attr title  "data queue length, max"
scalar scenarioPRJP1.node[0].wlan[0].mgmt 	dataQueueLen:timeavg 	0
attr interpolationmode  sample-hold
attr title  "data queue length, timeavg"
scalar scenarioPRJP1.node[0].wlan[0].mgmt 	dropPkByQueue:count 	0
attr interpolationmode  none
attr source  dropPkByQueue
attr title  "packets dropped by queue, count"
scalar scenarioPRJP1.node[0].wlan[0].mgmt 	dropPkByQueue:sum(packetBytes) 	0
attr interpolationmode  none
attr source  dropPkByQueue
attr title  "packets dropped by queue, sum(packetBytes)"
scalar scenarioPRJP1.node[0].wlan[0].mac 	"number of received packets" 	4368
scalar scenarioPRJP1.node[0].wlan[0].mac 	"number of collisions" 	39740
scalar scenarioPRJP1.node[0].wlan[0].mac 	"number of internal collisions" 	0
scalar scenarioPRJP1.node[0].wlan[0].mac 	"number of retry for AC 0" 	7260
scalar scenarioPRJP1.node[0].wlan[0].mac 	"number of retry for AC 1" 	0
scalar scenarioPRJP1.node[0].wlan[0].mac 	"number of retry for AC 2" 	0
scalar scenarioPRJP1.node[0].wlan[0].mac 	"number of retry for AC 3" 	0
scalar scenarioPRJP1.node[0].wlan[0].mac 	"sent and received bits" 	16496384
scalar scenarioPRJP1.node[0].wlan[0].mac 	"sent packet within AC 0" 	1153
scalar scenarioPRJP1.node[0].wlan[0].mac 	"sent packet within AC 1" 	0
scalar scenarioPRJP1.node[0].wlan[0].mac 	"sent packet within AC 2" 	0
scalar scenarioPRJP1.node[0].wlan[0].mac 	"sent packet within AC 3" 	0
scalar scenarioPRJP1.node[0].wlan[0].mac 	"sent in TXOP " 	0
scalar scenarioPRJP1.node[0].wlan[0].mac 	"sentWithoutRetry AC 0" 	981
scalar scenarioPRJP1.node[0].wlan[0].mac 	"sentWithoutRetry AC 1" 	0
scalar scenarioPRJP1.node[0].wlan[0].mac 	"sentWithoutRetry AC 2" 	0
scalar scenarioPRJP1.node[0].wlan[0].mac 	"sentWithoutRetry AC 3" 	0
scalar scenarioPRJP1.node[0].wlan[0].mac 	"numGivenUp AC 0" 	1160
scalar scenarioPRJP1.node[0].wlan[0].mac 	"numGivenUp AC 1" 	0
scalar scenarioPRJP1.node[0].wlan[0].mac 	"numGivenUp AC 2" 	0
scalar scenarioPRJP1.node[0].wlan[0].mac 	"numGivenUp AC 3" 	0
scalar scenarioPRJP1.node[0].wlan[0].mac 	"numDropped AC 0" 	0
scalar scenarioPRJP1.node[0].wlan[0].mac 	"numDropped AC 1" 	0
scalar scenarioPRJP1.node[0].wlan[0].mac 	"numDropped AC 2" 	0
scalar scenarioPRJP1.node[0].wlan[0].mac 	"numDropped AC 3" 	0
scalar scenarioPRJP1.node[0].wlan[0].mac 	rcvdPkFromLL:count 	232361
attr interpolationmode  none
attr source  packetReceivedFromLower
attr title  "packets received from lower layer, count"
scalar scenarioPRJP1.node[0].wlan[0].mac 	rcvdPkFromLL:sum(packetBytes) 	39180230
attr interpolationmode  none
attr source  packetReceivedFromLower
attr title  "packets received from lower layer, sum(packetBytes)"
scalar scenarioPRJP1.node[0].wlan[0].mac 	sentDownPk:count 	32743
attr interpolationmode  none
attr source  packetSentToLower
attr title  "packets sent to lower layer, count"
scalar scenarioPRJP1.node[0].wlan[0].mac 	sentDownPk:sum(packetBytes) 	5509524
attr interpolationmode  none
attr source  packetSentToLower
attr title  "packets sent to lower layer, sum(packetBytes)"
scalar scenarioPRJP1.node[0].wlan[0].mac 	rcvdPkFromHL:count 	21115
attr interpolationmode  none
attr source  packetReceivedFromUpper
attr title  "packets received from higher layer, count"
scalar scenarioPRJP1.node[0].wlan[0].mac 	rcvdPkFromHL:sum(packetBytes) 	2527308
attr interpolationmode  none
attr source  packetReceivedFromUpper
attr title  "packets received from higher layer, sum(packetBytes)"
scalar scenarioPRJP1.node[0].wlan[0].mac 	passedUpPk:count 	104764
attr interpolationmode  none
attr source  packetSentToUpper
attr title  "packets passed to higher layer, count"
scalar scenarioPRJP1.node[0].wlan[0].mac 	passedUpPk:sum(packetBytes) 	9807956
attr interpolationmode  none
attr source  packetSentToUpper
attr title  "packets passed to higher layer, sum(packetBytes)"
statistic scenarioPRJP1.node[0].wlan[0].radio 	radioChannel:histogram
field count 1
field mean 3
field stddev -nan
field sum 3
field sqrsum 9
field min 3
field max 3
attr interpolationmode  sample-hold
attr source  radioChannelChanged
attr title  "Radio channel, histogram"
bin	-INF	0
bin	2	0
bin	3	1
bin	4	0
scalar scenarioPRJP1.node[0].wlan[0].radio 	transmissionState:count 	130972
attr interpolationmode  sample-hold
attr source  transmissionStateChanged
attr title  "Radio transmission state, count"
scalar scenarioPRJP1.node[0].wlan[0].radio 	receptionState:count 	535985
attr interpolationmode  sample-hold
attr source  receptionStateChanged
attr title  "Radio reception state, count"
scalar scenarioPRJP1.node[0].wlan[0].radio 	radioMode:count 	65488
attr interpolationmode  sample-hold
attr source  radioModeChanged
attr title  "Radio mode, count"
statistic scenarioPRJP1.node[0].wlan[0].radio 	symbolErrorRate:histogram
field count 0
field mean -nan
field stddev -nan
field sum 0
field sqrsum 0
field min -nan
field max -nan
attr source  symbolErrorRate
attr title  "Symbol error rate, histogram"
bin	-INF	0
bin	-0.5	0
bin	-0.46666666666667	0
bin	-0.43333333333333	0
bin	-0.4	0
bin	-0.36666666666667	0
bin	-0.33333333333333	0
bin	-0.3	0
bin	-0.26666666666667	0
bin	-0.23333333333333	0
bin	-0.2	0
bin	-0.16666666666667	0
bin	-0.13333333333333	0
bin	-0.1	0
bin	-0.066666666666667	0
bin	-0.033333333333333	0
bin	0	0
bin	0.033333333333333	0
bin	0.066666666666667	0
bin	0.1	0
bin	0.13333333333333	0
bin	0.16666666666667	0
bin	0.2	0
bin	0.23333333333333	0
bin	0.26666666666667	0
bin	0.3	0
bin	0.33333333333333	0
bin	0.36666666666667	0
bin	0.4	0
bin	0.43333333333333	0
bin	0.46666666666667	0
bin	0.5	0
statistic scenarioPRJP1.node[0].wlan[0].radio 	bitErrorRate:histogram
field count 0
field mean -nan
field stddev -nan
field sum 0
field sqrsum 0
field min -nan
field max -nan
attr source  bitErrorRate
attr title  "Bit error rate, histogram"
bin	-INF	0
bin	-0.5	0
bin	-0.46666666666667	0
bin	-0.43333333333333	0
bin	-0.4	0
bin	-0.36666666666667	0
bin	-0.33333333333333	0
bin	-0.3	0
bin	-0.26666666666667	0
bin	-0.23333333333333	0
bin	-0.2	0
bin	-0.16666666666667	0
bin	-0.13333333333333	0
bin	-0.1	0
bin	-0.066666666666667	0
bin	-0.033333333333333	0
bin	0	0
bin	0.033333333333333	0
bin	0.066666666666667	0
bin	0.1	0
bin	0.13333333333333	0
bin	0.16666666666667	0
bin	0.2	0
bin	0.23333333333333	0
bin	0.26666666666667	0
bin	0.3	0
bin	0.33333333333333	0
bin	0.36666666666667	0
bin	0.4	0
bin	0.43333333333333	0
bin	0.46666666666667	0
bin	0.5	0
statistic scenarioPRJP1.node[0].wlan[0].radio 	packetErrorRate:histogram
field count 232361
field mean 0.14494938709585
field stddev 0.34291654873219
field sum 33680.584534978
field sqrsum 32205.601298256
field min 0
field max 1
attr source  packetErrorRate
attr title  "Packet error rate, histogram"
bin	-INF	0
bin	-0.5	0
bin	-0.43333333333333	0
bin	-0.36666666666667	0
bin	-0.3	0
bin	-0.23333333333333	0
bin	-0.16666666666667	0
bin	-0.1	0
bin	-0.033333333333333	192438
bin	0.033333333333333	2665
bin	0.1	1253
bin	0.16666666666667	787
bin	0.23333333333333	646
bin	0.3	524
bin	0.36666666666667	479
bin	0.43333333333333	422
bin	0.5	396
bin	0.56666666666667	393
bin	0.63333333333333	351
bin	0.7	384
bin	0.76666666666667	411
bin	0.83333333333333	457
bin	0.9	712
bin	0.96666666666667	30043
bin	1.0333333333333	0
bin	1.1	0
bin	1.1666666666667	0
bin	1.2333333333333	0
bin	1.3	0
bin	1.3666666666667	0
bin	1.4333333333333	0
bin	1.5	0
statistic scenarioPRJP1.node[0].wlan[0].radio 	minSNIR:histogram
field count 232361
field mean 4768.6534265234
field stddev 47289.411981571
field sum 1108049078.8404
field sqrsum 5.2490789454192e+14
field min 0.00016793313911723
field max 8005889.2734273
attr source  minSNIR
attr title  "Min SNIR, histogram"
bin	-INF	0
bin	-73.027055641972	0
bin	-63.131701105996	0
bin	-53.236346570021	0
bin	-43.340992034045	0
bin	-33.445637498069	0
bin	-23.550282962094	0
bin	-13.654928426118	0
bin	-3.7595738901427	68098
bin	6.1357806458329	33191
bin	16.031135181808	14214
bin	25.926489717784	8771
bin	35.82184425376	5870
bin	45.717198789735	4383
bin	55.612553325711	3631
bin	65.507907861686	3077
bin	75.403262397662	2487
bin	85.298616933638	2238
bin	95.193971469613	1948
bin	105.08932600559	1782
bin	114.98468054156	1532
bin	124.88003507754	2497
bin	134.77538961352	2154
bin	144.67074414949	1994
bin	154.56609868547	1789
bin	164.46145322144	1605
bin	174.35680775742	1486
bin	184.25216229339	1507
bin	194.14751682937	1428
bin	204.04287136534	1312
bin	213.93822590132	1303
bin	223.8335804373	64064
scalar scenarioPRJP1.node[0].lo0.lo 	droppedPkBitError:count 	0
attr interpolationmode  none
attr source  dropPkBitError
attr title  "packets dropped/bit error, count"
scalar scenarioPRJP1.node[0].lo0.lo 	droppedPkBitError:sum(packetBytes) 	0
attr interpolationmode  none
attr source  dropPkBitError
attr title  "packets dropped/bit error, sum(packetBytes)"
scalar scenarioPRJP1.node[0].lo0.lo 	rcvdPkFromHL:count 	0
attr interpolationmode  none
attr source  packetReceivedFromUpper
attr title  "packets received from higher layer, count"
scalar scenarioPRJP1.node[0].lo0.lo 	rcvdPkFromHL:sum(packetBytes) 	0
attr interpolationmode  none
attr source  packetReceivedFromUpper
attr title  "packets received from higher layer, sum(packetBytes)"
scalar scenarioPRJP1.node[0].lo0.lo 	passedUpPk:count 	0
attr interpolationmode  none
attr source  packetSentToUpper
attr title  "packets passed to higher layer, count"
scalar scenarioPRJP1.node[0].lo0.lo 	passedUpPk:sum(packetBytes) 	0
attr interpolationmode  none
attr source  packetSentToUpper
attr title  "packets passed to higher layer, sum(packetBytes)"
scalar scenarioPRJP1.node[20].app 	"Total sent" 	2608
scalar scenarioPRJP1.node[20].app 	"Total received" 	134
scalar scenarioPRJP1.node[20].app 	"Total deleted" 	80
scalar scenarioPRJP1.node[20].app 	dropPk:count 	80
attr interpolationmode  none
attr source  dropPk
attr title  "packets dropped, count"
scalar scenarioPRJP1.node[20].app 	dropPk:sum(packetBytes) 	40960
attr interpolationmode  none
attr source  dropPk
attr title  "packets dropped, sum(packetBytes)"
scalar scenarioPRJP1.node[20].app 	outOfOrderPk:count 	7
attr interpolationmode  none
attr source  outOfOrderPk
attr title  "packets received out of order, count"
scalar scenarioPRJP1.node[20].app 	outOfOrderPk:sum(packetBytes) 	3584
attr interpolationmode  none
attr source  outOfOrderPk
attr title  "packets received out of order, sum(packetBytes)"
scalar scenarioPRJP1.node[20].app 	rcvdPk:count 	134
attr interpolationmode  none
attr source  rcvdPk
attr title  "packets received, count"
scalar scenarioPRJP1.node[20].app 	rcvdPk:sum(packetBytes) 	68608
attr interpolationmode  none
attr source  rcvdPk
attr title  "packets received, sum(packetBytes)"
statistic scenarioPRJP1.node[20].app 	endToEndDelay:histogram
field count 134
field mean 1.9859604857092
field stddev 4.7067804085673
field sum 266.11870508504
field sqrsum 3474.9542141319
field min 0.000945022685
field max 19.931160963506
attr interpolationmode  none
attr source  messageAge(rcvdPk)
attr title  "delay, histogram"
attr unit  s
bin	-INF	0
bin	-9.9641629477255	0
bin	-8.6354818850041	0
bin	-7.3068008222827	0
bin	-5.9781197595613	0
bin	-4.6494386968399	0
bin	-3.3207576341185	0
bin	-1.9920765713971	0
bin	-0.6633955086757	107
bin	0.6652855540457	2
bin	1.9939666167671	1
bin	3.3226476794885	3
bin	4.6513287422099	3
bin	5.9800098049313	4
bin	7.3086908676527	1
bin	8.6373719303741	1
bin	9.9660529930955	3
bin	11.294734055817	1
bin	12.623415118538	1
bin	13.95209618126	0
bin	15.280777243981	1
bin	16.609458306702	2
bin	17.938139369424	2
bin	19.266820432145	2
bin	20.595501494867	0
bin	21.924182557588	0
bin	23.25286362031	0
bin	24.581544683031	0
bin	25.910225745752	0
bin	27.238906808474	0
bin	28.567587871195	0
bin	29.896268933916	0
scalar scenarioPRJP1.node[20].app 	sentPk:count 	2608
attr interpolationmode  none
attr source  sentPk
attr title  "packets sent, count"
scalar scenarioPRJP1.node[20].app 	sentPk:sum(packetBytes) 	1335296
attr interpolationmode  none
attr source  sentPk
attr title  "packets sent, sum(packetBytes)"
scalar scenarioPRJP1.node[20].udp 	droppedPkBadChecksum:count 	0
attr interpolationmode  none
attr title  "packets dropped (checksum error), count"
scalar scenarioPRJP1.node[20].udp 	droppedPkWrongPort:count 	0
attr interpolationmode  none
attr title  "packets dropped (wrong port), count"
scalar scenarioPRJP1.node[20].udp 	passedUpPk:count 	221
attr interpolationmode  none
attr title  "packets passed up, count"
scalar scenarioPRJP1.node[20].udp 	rcvdPk:count 	221
attr interpolationmode  none
attr source  rcvdPk
attr title  "packets received, count"
scalar scenarioPRJP1.node[20].udp 	rcvdPk:sum(packetBytes) 	114920
attr interpolationmode  none
attr source  rcvdPk
attr title  "packets received, sum(packetBytes)"
scalar scenarioPRJP1.node[20].udp 	sentPk:count 	2608
attr interpolationmode  none
attr source  sentPk
attr title  "packets sent, count"
scalar scenarioPRJP1.node[20].udp 	sentPk:sum(packetBytes) 	1356160
attr interpolationmode  none
attr source  sentPk
attr title  "packets sent, sum(packetBytes)"
scalar scenarioPRJP1.node[20].networkLayer.arp 	failedARPResolution:count 	11
attr title  "ARP failed resolutions, count"
scalar scenarioPRJP1.node[20].networkLayer.arp 	completedARPResolution:count 	659
attr title  "ARP completed resolutions, count"
scalar scenarioPRJP1.node[20].networkLayer.arp 	initiatedARPResolution:count 	94
attr title  "ARP initiated resolutions, count"
scalar scenarioPRJP1.node[20].networkLayer.arp 	sentReply:count 	52
attr title  "ARP replies sent, count"
scalar scenarioPRJP1.node[20].networkLayer.arp 	sentReq:count 	134
attr title  "ARP request sent, count"
scalar scenarioPRJP1.node[20].mobility 	startTime 	2.5
scalar scenarioPRJP1.node[20].mobility 	totalTime 	947.4
scalar scenarioPRJP1.node[20].mobility 	stopTime 	950
scalar scenarioPRJP1.node[20].mobility 	minSpeed 	2.4754796852343e-13
scalar scenarioPRJP1.node[20].mobility 	maxSpeed 	20.846895335785
scalar scenarioPRJP1.node[20].mobility 	totalDistance 	8964.3903755388
scalar scenarioPRJP1.node[20].mobility 	totalCO2Emission 	2625.0667607167
scalar scenarioPRJP1.node[20].wlan[0].mgmt 	dataQueueLen:max 	10
attr interpolationmode  sample-hold
attr title  "data queue length, max"
scalar scenarioPRJP1.node[20].wlan[0].mgmt 	dataQueueLen:timeavg 	0
attr interpolationmode  sample-hold
attr title  "data queue length, timeavg"
scalar scenarioPRJP1.node[20].wlan[0].mgmt 	dropPkByQueue:count 	0
attr interpolationmode  none
attr source  dropPkByQueue
attr title  "packets dropped by queue, count"
scalar scenarioPRJP1.node[20].wlan[0].mgmt 	dropPkByQueue:sum(packetBytes) 	0
attr interpolationmode  none
attr source  dropPkByQueue
attr title  "packets dropped by queue, sum(packetBytes)"
scalar scenarioPRJP1.node[20].wlan[0].mac 	"number of received packets" 	3932
scalar scenarioPRJP1.node[20].wlan[0].mac 	"number of collisions" 	30630
scalar scenarioPRJP1.node[20].wlan[0].mac 	"number of internal collisions" 	0
scalar scenarioPRJP1.node[20].wlan[0].mac 	"number of retry for AC 0" 	6074
scalar scenarioPRJP1.node[20].wlan[0].mac 	"number of retry for AC 1" 	0
scalar scenarioPRJP1.node[20].wlan[0].mac 	"number of retry for AC 2" 	0
scalar scenarioPRJP1.node[20].wlan[0].mac 	"number of retry for AC 3" 	0
scalar scenarioPRJP1.node[20].wlan[0].mac 	"sent and received bits" 	13951296
scalar scenarioPRJP1.node[20].wlan[0].mac 	"sent packet within AC 0" 	650
scalar scenarioPRJP1.node[20].wlan[0].mac 	"sent packet within AC 1" 	0
scalar scenarioPRJP1.node[20].wlan[0].mac 	"sent packet within AC 2" 	0
scalar scenarioPRJP1.node[20].wlan[0].mac 	"sent packet within AC 3" 	0
scalar scenarioPRJP1.node[20].wlan[0].mac 	"sent in TXOP " 	0
scalar scenarioPRJP1.node[20].wlan[0].mac 	"sentWithoutRetry AC 0" 	571
scalar scenarioPRJP1.node[20].wlan[0].mac 	"sentWithoutRetry AC 1" 	0
scalar scenarioPRJP1.node[20].wlan[0].mac 	"sentWithoutRetry AC 2" 	0
scalar scenarioPRJP1.node[20].wlan[0].mac 	"sentWithoutRetry AC 3" 	0
scalar scenarioPRJP1.node[20].wlan[0].mac 	"numGivenUp AC 0" 	991
scalar scenarioPRJP1.node[20].wlan[0].mac 	"numGivenUp AC 1" 	0
scalar scenarioPRJP1.node[20].wlan[0].mac 	"numGivenUp AC 2" 	0
scalar scenarioPRJP1.node[20].wlan[0].mac 	"numGivenUp AC 3" 	0
scalar scenarioPRJP1.node[20].wlan[0].mac 	"numDropped AC 0" 	0
scalar scenarioPRJP1.node[20].wlan[0].mac 	"numDropped AC 1" 	0
scalar scenarioPRJP1.node[20].wlan[0].mac 	"numDropped AC 2" 	0
scalar scenarioPRJP1.node[20].wlan[0].mac 	"numDropped AC 3" 	0
scalar scenarioPRJP1.node[20].wlan[0].mac 	rcvdPkFromLL:count 	208531
attr interpolationmode  none
attr source  packetReceivedFromLower
attr title  "packets received from lower layer, count"
scalar scenarioPRJP1.node[20].wlan[0].mac 	rcvdPkFromLL:sum(packetBytes) 	29642568
attr interpolationmode  none
attr source  packetReceivedFromLower
attr title  "packets received from lower layer, sum(packetBytes)"
scalar scenarioPRJP1.node[20].wlan[0].mac 	sentDownPk:count 	28040
attr interpolationmode  none
attr source  packetSentToLower
attr title  "packets sent to lower layer, count"
scalar scenarioPRJP1.node[20].wlan[0].mac 	sentDownPk:sum(packetBytes) 	4754284
attr interpolationmode  none
attr source  packetSentToLower
attr title  "packets sent to lower layer, sum(packetBytes)"
scalar scenarioPRJP1.node[20].wlan[0].mac 	rcvdPkFromHL:count 	18034
attr interpolationmode  none
attr source  packetReceivedFromUpper
attr title  "packets received from higher layer, count"
scalar scenarioPRJP1.node[20].wlan[0].mac 	rcvdPkFromHL:sum(packetBytes) 	2157472
attr interpolationmode  none
attr source  packetReceivedFromUpper
attr title  "packets received from higher layer, sum(packetBytes)"
scalar scenarioPRJP1.node[20].wlan[0].mac 	passedUpPk:count 	82631
attr interpolationmode  none
attr source  packetSentToUpper
attr title  "packets passed to higher layer, count"
scalar scenarioPRJP1.node[20].wlan[0].mac 	passedUpPk:sum(packetBytes) 	7767504
attr interpolationmode  none
attr source  packetSentToUpper
attr title  "packets passed to higher layer, sum(packetBytes)"
statistic scenarioPRJP1.node[20].wlan[0].radio 	radioChannel:histogram
field count 1
field mean 3
field stddev -nan
field sum 3
field sqrsum 9
field min 3
field max 3
attr interpolationmode  sample-hold
attr source  radioChannelChanged
attr title  "Radio channel, histogram"
bin	-INF	0
bin	2	0
bin	3	1
bin	4	0
scalar scenarioPRJP1.node[20].wlan[0].radio 	transmissionState:count 	112160
attr interpolationmode  sample-hold
attr source  transmissionStateChanged
attr title  "Radio transmission state, count"
scalar scenarioPRJP1.node[20].wlan[0].radio 	receptionState:count 	477297
attr interpolationmode  sample-hold
attr source  receptionStateChanged
attr title  "Radio reception state, count"
scalar scenarioPRJP1.node[20].wlan[0].radio 	radioMode:count 	56082
attr interpolationmode  sample-hold
attr source  radioModeChanged
attr title  "Radio mode, count"
statistic scenarioPRJP1.node[20].wlan[0].radio 	symbolErrorRate:histogram
field count 0
field mean -nan
field stddev -nan
field sum 0
field sqrsum 0
field min -nan
field max -nan
attr source  symbolErrorRate
attr title  "Symbol error rate, histogram"
bin	-INF	0
bin	-0.5	0
bin	-0.46666666666667	0
bin	-0.43333333333333	0
bin	-0.4	0
bin	-0.36666666666667	0
bin	-0.33333333333333	0
bin	-0.3	0
bin	-0.26666666666667	0
bin	-0.23333333333333	0
bin	-0.2	0
bin	-0.16666666666667	0
bin	-0.13333333333333	0
bin	-0.1	0
bin	-0.066666666666667	0
bin	-0.033333333333333	0
bin	0	0
bin	0.033333333333333	0
bin	0.066666666666667	0
bin	0.1	0
bin	0.13333333333333	0
bin	0.16666666666667	0
bin	0.2	0
bin	0.23333333333333	0
bin	0.26666666666667	0
bin	0.3	0
bin	0.33333333333333	0
bin	0.36666666666667	0
bin	0.4	0
bin	0.43333333333333	0
bin	0.46666666666667	0
bin	0.5	0
statistic scenarioPRJP1.node[20].wlan[0].radio 	bitErrorRate:histogram
field count 0
field mean -nan
field stddev -nan
field sum 0
field sqrsum 0
field min -nan
field max -nan
attr source  bitErrorRate
attr title  "Bit error rate, histogram"
bin	-INF	0
bin	-0.5	0
bin	-0.46666666666667	0
bin	-0.43333333333333	0
bin	-0.4	0
bin	-0.36666666666667	0
bin	-0.33333333333333	0
bin	-0.3	0
bin	-0.26666666666667	0
bin	-0.23333333333333	0
bin	-0.2	0
bin	-0.16666666666667	0
bin	-0.13333333333333	0
bin	-0.1	0
bin	-0.066666666666667	0
bin	-0.033333333333333	0
bin	0	0
bin	0.033333333333333	0
bin	0.066666666666667	0
bin	0.1	0
bin	0.13333333333333	0
bin	0.16666666666667	0
bin	0.2	0
bin	0.23333333333333	0
bin	0.26666666666667	0
bin	0.3	0
bin	0.33333333333333	0
bin	0.36666666666667	0
bin	0.4	0
bin	0.43333333333333	0
bin	0.46666666666667	0
bin	0.5	0
statistic scenarioPRJP1.node[20].wlan[0].radio 	packetErrorRate:histogram
field count 208531
field mean 0.12428311156534
field stddev 0.31939266790663
field sum 25916.881537832
field sqrsum 24493.52554104
field min 0
field max 1
attr source  packetErrorRate
attr title  "Packet error rate, histogram"
bin	-INF	0
bin	-0.5	0
bin	-0.43333333333333	0
bin	-0.36666666666667	0
bin	-0.3	0
bin	-0.23333333333333	0
bin	-0.16666666666667	0
bin	-0.1	0
bin	-0.033333333333333	176571
bin	0.033333333333333	2555
bin	0.1	1200
bin	0.16666666666667	818
bin	0.23333333333333	626
bin	0.3	521
bin	0.36666666666667	447
bin	0.43333333333333	412
bin	0.5	366
bin	0.56666666666667	354
bin	0.63333333333333	374
bin	0.7	359
bin	0.76666666666667	389
bin	0.83333333333333	426
bin	0.9	675
bin	0.96666666666667	22438
bin	1.0333333333333	0
bin	1.1	0
bin	1.1666666666667	0
bin	1.2333333333333	0
bin	1.3	0
bin	1.3666666666667	0
bin	1.4333333333333	0
bin	1.5	0
statistic scenarioPRJP1.node[20].wlan[0].radio 	minSNIR:histogram
field count 208531
field mean 2976.7971522744
field stddev 31528.283783668
field sum 620754486.96092
field sqrsum 2.0913349460402e+14
field min 0.00017469173110717
field max 4146458.4504793
attr source  minSNIR
attr title  "Min SNIR, histogram"
bin	-INF	0
bin	-68.976626004714	0
bin	-59.74938133122	0
bin	-50.522136657725	0
bin	-41.29489198423	0
bin	-32.067647310735	0
bin	-22.84040263724	0
bin	-13.613157963745	0
bin	-4.3859132902504	49370
bin	4.8413313832445	42446
bin	14.068576056739	14631
bin	23.295820730234	8148
bin	32.523065403729	5577
bin	41.750310077224	4493
bin	50.977554750719	3686
bin	60.204799424214	3108
bin	69.432044097708	2663
bin	78.659288771203	2242
bin	87.886533444698	2062
bin	97.113778118193	1791
bin	106.34102279169	1677
bin	115.56826746518	1286
bin	124.79551213868	2134
bin	134.02275681217	1945
bin	143.25000148567	1653
bin	152.47724615916	1798
bin	161.70449083266	1504
bin	170.93173550615	1369
bin	180.15898017965	1455
bin	189.38622485314	1275
bin	198.61346952664	1049
bin	207.84071420013	51169
scalar scenarioPRJP1.node[20].lo0.lo 	droppedPkBitError:count 	0
attr interpolationmode  none
attr source  dropPkBitError
attr title  "packets dropped/bit error, count"
scalar scenarioPRJP1.node[20].lo0.lo 	droppedPkBitError:sum(packetBytes) 	0
attr interpolationmode  none
attr source  dropPkBitError
attr title  "packets dropped/bit error, sum(packetBytes)"
scalar scenarioPRJP1.node[20].lo0.lo 	rcvdPkFromHL:count 	0
attr interpolationmode  none
attr source  packetReceivedFromUpper
attr title  "packets received from higher layer, count"
scalar scenarioPRJP1.node[20].lo0.lo 	rcvdPkFromHL:sum(packetBytes) 	0
attr interpolationmode  none
attr source  packetReceivedFromUpper
attr title  "packets received from higher layer, sum(packetBytes)"
scalar scenarioPRJP1.node[20].lo0.lo 	passedUpPk:count 	0
attr interpolationmode  none
attr source  packetSentToUpper
attr title  "packets passed to higher layer, count"
scalar scenarioPRJP1.node[20].lo0.lo 	passedUpPk:sum(packetBytes) 	0
attr interpolationmode  none
attr source  packetSentToUpper
attr title  "packets passed to higher layer, sum(packetBytes)"
scalar scenarioPRJP1.node[40].app 	"Total sent" 	2607
scalar scenarioPRJP1.node[40].app 	"Total received" 	139
scalar scenarioPRJP1.node[40].app 	"Total deleted" 	80
scalar scenarioPRJP1.node[40].app 	dropPk:count 	80
attr interpolationmode  none
attr source  dropPk
attr title  "packets dropped, count"
scalar scenarioPRJP1.node[40].app 	dropPk:sum(packetBytes) 	40960
attr interpolationmode  none
attr source  dropPk
attr title  "packets dropped, sum(packetBytes)"
scalar scenarioPRJP1.node[40].app 	outOfOrderPk:count 	47
attr interpolationmode  none
attr source  outOfOrderPk
attr title  "packets received out of order, count"
scalar scenarioPRJP1.node[40].app 	outOfOrderPk:sum(packetBytes) 	24064
attr interpolationmode  none
attr source  outOfOrderPk
attr title  "packets received out of order, sum(packetBytes)"
scalar scenarioPRJP1.node[40].app 	rcvdPk:count 	139
attr interpolationmode  none
attr source  rcvdPk
attr title  "packets received, count"
scalar scenarioPRJP1.node[40].app 	rcvdPk:sum(packetBytes) 	71168
attr interpolationmode  none
attr source  rcvdPk
attr title  "packets received, sum(packetBytes)"
statistic scenarioPRJP1.node[40].app 	endToEndDelay:histogram
field count 139
field mean 0.34995560214197
field stddev 1.3587303274767
field sum 48.643828697734
field sqrsum 271.79161854949
field min 0.0009450434
field max 8.71912625611
attr interpolationmode  none
attr source  messageAge(rcvdPk)
attr title  "delay, histogram"
attr unit  s
bin	-INF	0
bin	-4.331384020862	0
bin	-3.7537401454211	0
bin	-3.1760962699801	0
bin	-2.5984523945392	0
bin	-2.0208085190983	0
bin	-1.4431646436573	0
bin	-0.8655207682164	0
bin	-0.28787689277547	122
bin	0.28976698266547	4
bin	0.8674108581064	6
bin	1.4450547335473	1
bin	2.0226986089883	0
bin	2.6003424844292	0
bin	3.1779863598701	1
bin	3.7556302353111	1
bin	4.333274110752	0
bin	4.9109179861929	0
bin	5.4885618616339	1
bin	6.0662057370748	0
bin	6.6438496125157	1
bin	7.2214934879567	0
bin	7.7991373633976	0
bin	8.3767812388385	2
bin	8.9544251142795	0
bin	9.5320689897204	0
bin	10.109712865161	0
bin	10.687356740602	0
bin	11.265000616043	0
bin	11.842644491484	0
bin	12.420288366925	0
bin	12.997932242366	0
scalar scenarioPRJP1.node[40].app 	sentPk:count 	2607
attr interpolationmode  none
attr source  sentPk
attr title  "packets sent, count"
scalar scenarioPRJP1.node[40].app 	sentPk:sum(packetBytes) 	1334784
attr interpolationmode  none
attr source  sentPk
attr title  "packets sent, sum(packetBytes)"
scalar scenarioPRJP1.node[40].udp 	droppedPkBadChecksum:count 	0
attr interpolationmode  none
attr title  "packets dropped (checksum error), count"
scalar scenarioPRJP1.node[40].udp 	droppedPkWrongPort:count 	0
attr interpolationmode  none
attr title  "packets dropped (wrong port), count"
scalar scenarioPRJP1.node[40].udp 	passedUpPk:count 	266
attr interpolationmode  none
attr title  "packets passed up, count"
scalar scenarioPRJP1.node[40].udp 	rcvdPk:count 	266
attr interpolationmode  none
attr source  rcvdPk
attr title  "packets received, count"
scalar scenarioPRJP1.node[40].udp 	rcvdPk:sum(packetBytes) 	138320
attr interpolationmode  none
attr source  rcvdPk
attr title  "packets received, sum(packetBytes)"
scalar scenarioPRJP1.node[40].udp 	sentPk:count 	2607
attr interpolationmode  none
attr source  sentPk
attr title  "packets sent, count"
scalar scenarioPRJP1.node[40].udp 	sentPk:sum(packetBytes) 	1355640
attr interpolationmode  none
attr source  sentPk
attr title  "packets sent, sum(packetBytes)"
scalar scenarioPRJP1.node[40].networkLayer.arp 	failedARPResolution:count 	9
attr title  "ARP failed resolutions, count"
scalar scenarioPRJP1.node[40].networkLayer.arp 	completedARPResolution:count 	717
attr title  "ARP completed resolutions, count"
scalar scenarioPRJP1.node[40].networkLayer.arp 	initiatedARPResolution:count 	69
attr title  "ARP initiated resolutions, count"
scalar scenarioPRJP1.node[40].networkLayer.arp 	sentReply:count 	67
attr title  "ARP replies sent, count"
scalar scenarioPRJP1.node[40].networkLayer.arp 	sentReq:count 	105
attr title  "ARP request sent, count"
scalar scenarioPRJP1.node[40].mobility 	startTime 	4.9
scalar scenarioPRJP1.node[40].mobility 	totalTime 	945
scalar scenarioPRJP1.node[40].mobility 	stopTime 	950
scalar scenarioPRJP1.node[40].mobility 	minSpeed 	2.475507519714e-13
scalar scenarioPRJP1.node[40].mobility 	maxSpeed 	18.680499039505
scalar scenarioPRJP1.node[40].mobility 	totalDistance 	8774.8396912032
scalar scenarioPRJP1.node[40].mobility 	totalCO2Emission 	2548.6510077966
scalar scenarioPRJP1.node[40].wlan[0].mgmt 	dataQueueLen:max 	18
attr interpolationmode  sample-hold
attr title  "data queue length, max"
scalar scenarioPRJP1.node[40].wlan[0].mgmt 	dataQueueLen:timeavg 	0
attr interpolationmode  sample-hold
attr title  "data queue length, timeavg"
scalar scenarioPRJP1.node[40].wlan[0].mgmt 	dropPkByQueue:count 	0
attr interpolationmode  none
attr source  dropPkByQueue
attr title  "packets dropped by queue, count"
scalar scenarioPRJP1.node[40].wlan[0].mgmt 	dropPkByQueue:sum(packetBytes) 	0
attr interpolationmode  none
attr source  dropPkByQueue
attr title  "packets dropped by queue, sum(packetBytes)"
scalar scenarioPRJP1.node[40].wlan[0].mac 	"number of received packets" 	3443
scalar scenarioPRJP1.node[40].wlan[0].mac 	"number of collisions" 	22850
scalar scenarioPRJP1.node[40].wlan[0].mac 	"number of internal collisions" 	0
scalar scenarioPRJP1.node[40].wlan[0].mac 	"number of retry for AC 0" 	4939
scalar scenarioPRJP1.node[40].wlan[0].mac 	"number of retry for AC 1" 	0
scalar scenarioPRJP1.node[40].wlan[0].mac 	"number of retry for AC 2" 	0
scalar scenarioPRJP1.node[40].wlan[0].mac 	"number of retry for AC 3" 	0
scalar scenarioPRJP1.node[40].wlan[0].mac 	"sent and received bits" 	13339328
scalar scenarioPRJP1.node[40].wlan[0].mac 	"sent packet within AC 0" 	901
scalar scenarioPRJP1.node[40].wlan[0].mac 	"sent packet within AC 1" 	2
scalar scenarioPRJP1.node[40].wlan[0].mac 	"sent packet within AC 2" 	0
scalar scenarioPRJP1.node[40].wlan[0].mac 	"sent packet within AC 3" 	0
scalar scenarioPRJP1.node[40].wlan[0].mac 	"sent in TXOP " 	0
scalar scenarioPRJP1.node[40].wlan[0].mac 	"sentWithoutRetry AC 0" 	827
scalar scenarioPRJP1.node[40].wlan[0].mac 	"sentWithoutRetry AC 1" 	2
scalar scenarioPRJP1.node[40].wlan[0].mac 	"sentWithoutRetry AC 2" 	0
scalar scenarioPRJP1.node[40].wlan[0].mac 	"sentWithoutRetry AC 3" 	0
scalar scenarioPRJP1.node[40].wlan[0].mac 	"numGivenUp AC 0" 	801
scalar scenarioPRJP1.node[40].wlan[0].mac 	"numGivenUp AC 1" 	0
scalar scenarioPRJP1.node[40].wlan[0].mac 	"numGivenUp AC 2" 	0
scalar scenarioPRJP1.node[40].wlan[0].mac 	"numGivenUp AC 3" 	0
scalar scenarioPRJP1.node[40].wlan[0].mac 	"numDropped AC 0" 	0
scalar scenarioPRJP1.node[40].wlan[0].mac 	"numDropped AC 1" 	0
scalar scenarioPRJP1.node[40].wlan[0].mac 	"numDropped AC 2" 	0
scalar scenarioPRJP1.node[40].wlan[0].mac 	"numDropped AC 3" 	0
scalar scenarioPRJP1.node[40].wlan[0].mac 	rcvdPkFromLL:count 	165393
attr interpolationmode  none
attr source  packetReceivedFromLower
attr title  "packets received from lower layer, count"
scalar scenarioPRJP1.node[40].wlan[0].mac 	rcvdPkFromLL:sum(packetBytes) 	28319034
attr interpolationmode  none
attr source  packetReceivedFromLower
attr title  "packets received from lower layer, sum(packetBytes)"
scalar scenarioPRJP1.node[40].wlan[0].mac 	sentDownPk:count 	25792
attr interpolationmode  none
attr source  packetSentToLower
attr title  "packets sent to lower layer, count"
scalar scenarioPRJP1.node[40].wlan[0].mac 	sentDownPk:sum(packetBytes) 	4066434
attr interpolationmode  none
attr source  packetSentToLower
attr title  "packets sent to lower layer, sum(packetBytes)"
scalar scenarioPRJP1.node[40].wlan[0].mac 	rcvdPkFromHL:count 	17410
attr interpolationmode  none
attr source  packetReceivedFromUpper
attr title  "packets received from higher layer, count"
scalar scenarioPRJP1.node[40].wlan[0].mac 	rcvdPkFromHL:sum(packetBytes) 	1993928
attr interpolationmode  none
attr source  packetReceivedFromUpper
attr title  "packets received from higher layer, sum(packetBytes)"
scalar scenarioPRJP1.node[40].wlan[0].mac 	passedUpPk:count 	80583
attr interpolationmode  none
attr source  packetSentToUpper
attr title  "packets passed to higher layer, count"
scalar scenarioPRJP1.node[40].wlan[0].mac 	passedUpPk:sum(packetBytes) 	7448580
attr interpolationmode  none
attr source  packetSentToUpper
attr title  "packets passed to higher layer, sum(packetBytes)"
statistic scenarioPRJP1.node[40].wlan[0].radio 	radioChannel:histogram
field count 1
field mean 3
field stddev -nan
field sum 3
field sqrsum 9
field min 3
field max 3
attr interpolationmode  sample-hold
attr source  radioChannelChanged
attr title  "Radio channel, histogram"
bin	-INF	0
bin	2	0
bin	3	1
bin	4	0
scalar scenarioPRJP1.node[40].wlan[0].radio 	transmissionState:count 	103168
attr interpolationmode  sample-hold
attr source  transmissionStateChanged
attr title  "Radio transmission state, count"
scalar scenarioPRJP1.node[40].wlan[0].radio 	receptionState:count 	385132
attr interpolationmode  sample-hold
attr source  receptionStateChanged
attr title  "Radio reception state, count"
scalar scenarioPRJP1.node[40].wlan[0].radio 	radioMode:count 	51586
attr interpolationmode  sample-hold
attr source  radioModeChanged
attr title  "Radio mode, count"
statistic scenarioPRJP1.node[40].wlan[0].radio 	symbolErrorRate:histogram
field count 0
field mean -nan
field stddev -nan
field sum 0
field sqrsum 0
field min -nan
field max -nan
attr source  symbolErrorRate
attr title  "Symbol error rate, histogram"
bin	-INF	0
bin	-0.5	0
bin	-0.46666666666667	0
bin	-0.43333333333333	0
bin	-0.4	0
bin	-0.36666666666667	0
bin	-0.33333333333333	0
bin	-0.3	0
bin	-0.26666666666667	0
bin	-0.23333333333333	0
bin	-0.2	0
bin	-0.16666666666667	0
bin	-0.13333333333333	0
bin	-0.1	0
bin	-0.066666666666667	0
bin	-0.033333333333333	0
bin	0	0
bin	0.033333333333333	0
bin	0.066666666666667	0
bin	0.1	0
bin	0.13333333333333	0
bin	0.16666666666667	0
bin	0.2	0
bin	0.23333333333333	0
bin	0.26666666666667	0
bin	0.3	0
bin	0.33333333333333	0
bin	0.36666666666667	0
bin	0.4	0
bin	0.43333333333333	0
bin	0.46666666666667	0
bin	0.5	0
statistic scenarioPRJP1.node[40].wlan[0].radio 	bitErrorRate:histogram
field count 0
field mean -nan
field stddev -nan
field sum 0
field sqrsum 0
field min -nan
field max -nan
attr source  bitErrorRate
attr title  "Bit error rate, histogram"
bin	-INF	0
bin	-0.5	0
bin	-0.46666666666667	0
bin	-0.43333333333333	0
bin	-0.4	0
bin	-0.36666666666667	0
bin	-0.33333333333333	0
bin	-0.3	0
bin	-0.26666666666667	0
bin	-0.23333333333333	0
bin	-0.2	0
bin	-0.16666666666667	0
bin	-0.13333333333333	0
bin	-0.1	0
bin	-0.066666666666667	0
bin	-0.033333333333333	0
bin	0	0
bin	0.033333333333333	0
bin	0.066666666666667	0
bin	0.1	0
bin	0.13333333333333	0
bin	0.16666666666667	0
bin	0.2	0
bin	0.23333333333333	0
bin	0.26666666666667	0
bin	0.3	0
bin	0.33333333333333	0
bin	0.36666666666667	0
bin	0.4	0
bin	0.43333333333333	0
bin	0.46666666666667	0
bin	0.5	0
statistic scenarioPRJP1.node[40].wlan[0].radio 	packetErrorRate:histogram
field count 165393
field mean 0.11618430432807
field stddev 0.31105289779657
field sum 19216.070645732
field sqrsum 18234.927693304
field min 0
field max 1
attr source  packetErrorRate
attr title  "Packet error rate, histogram"
bin	-INF	0
bin	-3.6773930611744e-06	0
bin	-3.1870739863512e-06	0
bin	-2.6967549115279e-06	0
bin	-2.2064358367047e-06	0
bin	-1.7161167618814e-06	0
bin	-1.2257976870581e-06	0
bin	-7.3547861223489e-07	0
bin	-2.4515953741163e-07	125935
bin	2.4515953741163e-07	1187
bin	7.3547861223489e-07	600
bin	1.2257976870581e-06	411
bin	1.7161167618814e-06	312
bin	2.2064358367047e-06	230
bin	2.6967549115279e-06	181
bin	3.1870739863512e-06	163
bin	3.6773930611744e-06	146
bin	4.1677121359977e-06	139
bin	4.6580312108209e-06	124
bin	5.1483502856442e-06	105
bin	5.6386693604675e-06	102
bin	6.1289884352907e-06	97
bin	6.619307510114e-06	80
bin	7.1096265849372e-06	84
bin	7.5999456597605e-06	77
bin	8.0902647345837e-06	73
bin	8.580583809407e-06	75
bin	9.0709028842303e-06	70
bin	9.5612219590535e-06	75
bin	1.0051541033877e-05	68
bin	1.05418601087e-05	61
bin	1.1032179183523e-05	34998
statistic scenarioPRJP1.node[40].wlan[0].radio 	minSNIR:histogram
field count 165393
field mean 5467.8834595427
field stddev 39296.002690346
field sum 904349649.02414
field sqrsum 2.6033920693944e+14
field min 0.00017371305944273
field max 753239.71923443
attr source  minSNIR
attr title  "Min SNIR, histogram"
bin	-INF	0
bin	-577.46602262997	0
bin	-499.98506794902	0
bin	-422.50411326808	0
bin	-345.02315858714	0
bin	-267.54220390619	0
bin	-190.06124922525	0
bin	-112.58029454431	0
bin	-35.099339863363	82702
bin	42.38161481758	17082
bin	119.86256949852	11140
bin	197.34352417947	6617
bin	274.82447886041	4937
bin	352.30543354135	3374
bin	429.7863882223	2281
bin	507.26734290324	1953
bin	584.74829758418	1532
bin	662.22925226513	1414
bin	739.71020694607	1221
bin	817.19116162701	1072
bin	894.67211630796	911
bin	972.1530709889	661
bin	1049.6340256698	682
bin	1127.1149803508	655
bin	1204.5959350317	637
bin	1282.0768897127	546
bin	1359.5578443936	570
bin	1437.0387990746	501
bin	1514.5197537555	473
bin	1592.0007084364	422
bin	1669.4816631174	398
bin	1746.9626177983	23612
scalar scenarioPRJP1.node[40].lo0.lo 	droppedPkBitError:count 	0
attr interpolationmode  none
attr source  dropPkBitError
attr title  "packets dropped/bit error, count"
scalar scenarioPRJP1.node[40].lo0.lo 	droppedPkBitError:sum(packetBytes) 	0
attr interpolationmode  none
attr source  dropPkBitError
attr title  "packets dropped/bit error, sum(packetBytes)"
scalar scenarioPRJP1.node[40].lo0.lo 	rcvdPkFromHL:count 	1
attr interpolationmode  none
attr source  packetReceivedFromUpper
attr title  "packets received from higher layer, count"
scalar scenarioPRJP1.node[40].lo0.lo 	rcvdPkFromHL:sum(packetBytes) 	56
attr interpolationmode  none
attr source  packetReceivedFromUpper
attr title  "packets received from higher layer, sum(packetBytes)"
scalar scenarioPRJP1.node[40].lo0.lo 	passedUpPk:count 	1
attr interpolationmode  none
attr source  packetSentToUpper
attr title  "packets passed to higher layer, count"
scalar scenarioPRJP1.node[40].lo0.lo 	passedUpPk:sum(packetBytes) 	56
attr interpolationmode  none
attr source  packetSentToUpper
attr title  "packets passed to higher layer, sum(packetBytes)"
scalar scenarioPRJP1.node[60].app 	"Total sent" 	2608
scalar scenarioPRJP1.node[60].app 	"Total received" 	102
scalar scenarioPRJP1.node[60].app 	"Total deleted" 	41
scalar scenarioPRJP1.node[60].app 	dropPk:count 	41
attr interpolationmode  none
attr source  dropPk
attr title  "packets dropped, count"
scalar scenarioPRJP1.node[60].app 	dropPk:sum(packetBytes) 	20992
attr interpolationmode  none
attr source  dropPk
attr title  "packets dropped, sum(packetBytes)"
scalar scenarioPRJP1.node[60].app 	outOfOrderPk:count 	12
attr interpolationmode  none
attr source  outOfOrderPk
attr title  "packets received out of order, count"
scalar scenarioPRJP1.node[60].app 	outOfOrderPk:sum(packetBytes) 	6144
attr interpolationmode  none
attr source  outOfOrderPk
attr title  "packets received out of order, sum(packetBytes)"
scalar scenarioPRJP1.node[60].app 	rcvdPk:count 	102
attr interpolationmode  none
attr source  rcvdPk
attr title  "packets received, count"
scalar scenarioPRJP1.node[60].app 	rcvdPk:sum(packetBytes) 	52224
attr interpolationmode  none
attr source  rcvdPk
attr title  "packets received, sum(packetBytes)"
statistic scenarioPRJP1.node[60].app 	endToEndDelay:histogram
field count 102
field mean 0.65346257373143
field stddev 2.869850916989
field sum 66.653182520606
field sqrsum 875.39583305733
field min 0.000945081789
field max 18.872006995924
attr interpolationmode  none
attr source  messageAge(rcvdPk)
attr title  "delay, histogram"
attr unit  s
bin	-INF	0
bin	-9.4345858752785	0
bin	-8.1765150810028	0
bin	-6.9184442867272	0
bin	-5.6603734924515	0
bin	-4.4023026981758	0
bin	-3.1442319039002	0
bin	-1.8861611096245	0
bin	-0.62809031534884	94
bin	0.62998047892683	2
bin	1.8880512732025	0
bin	3.1461220674782	1
bin	4.4041928617538	1
bin	5.6622636560295	0
bin	6.9203344503052	1
bin	8.1784052445808	0
bin	9.4364760388565	0
bin	10.694546833132	0
bin	11.952617627408	0
bin	13.210688421684	1
bin	14.468759215959	1
bin	15.726830010235	0
bin	16.984900804511	0
bin	18.242971598786	1
bin	19.501042393062	0
bin	20.759113187338	0
bin	22.017183981613	0
bin	23.275254775889	0
bin	24.533325570165	0
bin	25.79139636444	0
bin	27.049467158716	0
bin	28.307537952992	0
scalar scenarioPRJP1.node[60].app 	sentPk:count 	2608
attr interpolationmode  none
attr source  sentPk
attr title  "packets sent, count"
scalar scenarioPRJP1.node[60].app 	sentPk:sum(packetBytes) 	1335296
attr interpolationmode  none
attr source  sentPk
attr title  "packets sent, sum(packetBytes)"
scalar scenarioPRJP1.node[60].udp 	droppedPkBadChecksum:count 	0
attr interpolationmode  none
attr title  "packets dropped (checksum error), count"
scalar scenarioPRJP1.node[60].udp 	droppedPkWrongPort:count 	0
attr interpolationmode  none
attr title  "packets dropped (wrong port), count"
scalar scenarioPRJP1.node[60].udp 	passedUpPk:count 	155
attr interpolationmode  none
attr title  "packets passed up, count"
scalar scenarioPRJP1.node[60].udp 	rcvdPk:count 	155
attr interpolationmode  none
attr source  rcvdPk
attr title  "packets received, count"
scalar scenarioPRJP1.node[60].udp 	rcvdPk:sum(packetBytes) 	80600
attr interpolationmode  none
attr source  rcvdPk
attr title  "packets received, sum(packetBytes)"
scalar scenarioPRJP1.node[60].udp 	sentPk:count 	2608
attr interpolationmode  none
attr source  sentPk
attr title  "packets sent, count"
scalar scenarioPRJP1.node[60].udp 	sentPk:sum(packetBytes) 	1356160
attr interpolationmode  none
attr source  sentPk
attr title  "packets sent, sum(packetBytes)"
scalar scenarioPRJP1.node[60].networkLayer.arp 	failedARPResolution:count 	4
attr title  "ARP failed resolutions, count"
scalar scenarioPRJP1.node[60].networkLayer.arp 	completedARPResolution:count 	590
attr title  "ARP completed resolutions, count"
scalar scenarioPRJP1.node[60].networkLayer.arp 	initiatedARPResolution:count 	62
attr title  "ARP initiated resolutions, count"
scalar scenarioPRJP1.node[60].networkLayer.arp 	sentReply:count 	59
attr title  "ARP replies sent, count"
scalar scenarioPRJP1.node[60].networkLayer.arp 	sentReq:count 	89
attr title  "ARP request sent, count"
scalar scenarioPRJP1.node[60].mobility 	startTime 	7.3
scalar scenarioPRJP1.node[60].mobility 	totalTime 	942.6
scalar scenarioPRJP1.node[60].mobility 	stopTime 	950
scalar scenarioPRJP1.node[60].mobility 	minSpeed 	2.4754453502519e-13
scalar scenarioPRJP1.node[60].mobility 	maxSpeed 	16.812893988717
scalar scenarioPRJP1.node[60].mobility 	totalDistance 	9320.0168178537
scalar scenarioPRJP1.node[60].mobility 	totalCO2Emission 	2457.4194113656
scalar scenarioPRJP1.node[60].wlan[0].mgmt 	dataQueueLen:max 	10
attr interpolationmode  sample-hold
attr title  "data queue length, max"
scalar scenarioPRJP1.node[60].wlan[0].mgmt 	dataQueueLen:timeavg 	0
attr interpolationmode  sample-hold
attr title  "data queue length, timeavg"
scalar scenarioPRJP1.node[60].wlan[0].mgmt 	dropPkByQueue:count 	0
attr interpolationmode  none
attr source  dropPkByQueue
attr title  "packets dropped by queue, count"
scalar scenarioPRJP1.node[60].wlan[0].mgmt 	dropPkByQueue:sum(packetBytes) 	0
attr interpolationmode  none
attr source  dropPkByQueue
attr title  "packets dropped by queue, sum(packetBytes)"
scalar scenarioPRJP1.node[60].wlan[0].mac 	"number of received packets" 	6764
scalar scenarioPRJP1.node[60].wlan[0].mac 	"number of collisions" 	27357
scalar scenarioPRJP1.node[60].wlan[0].mac 	"number of internal collisions" 	0
scalar scenarioPRJP1.node[60].wlan[0].mac 	"number of retry for AC 0" 	6085
scalar scenarioPRJP1.node[60].wlan[0].mac 	"number of retry for AC 1" 	0
scalar scenarioPRJP1.node[60].wlan[0].mac 	"number of retry for AC 2" 	0
scalar scenarioPRJP1.node[60].wlan[0].mac 	"number of retry for AC 3" 	0
scalar scenarioPRJP1.node[60].wlan[0].mac 	"sent and received bits" 	17171936
scalar scenarioPRJP1.node[60].wlan[0].mac 	"sent packet within AC 0" 	3814
scalar scenarioPRJP1.node[60].wlan[0].mac 	"sent packet within AC 1" 	0
scalar scenarioPRJP1.node[60].wlan[0].mac 	"sent packet within AC 2" 	0
scalar scenarioPRJP1.node[60].wlan[0].mac 	"sent packet within AC 3" 	0
scalar scenarioPRJP1.node[60].wlan[0].mac 	"sent in TXOP " 	0
scalar scenarioPRJP1.node[60].wlan[0].mac 	"sentWithoutRetry AC 0" 	3576
scalar scenarioPRJP1.node[60].wlan[0].mac 	"sentWithoutRetry AC 1" 	0
scalar scenarioPRJP1.node[60].wlan[0].mac 	"sentWithoutRetry AC 2" 	0
scalar scenarioPRJP1.node[60].wlan[0].mac 	"sentWithoutRetry AC 3" 	0
scalar scenarioPRJP1.node[60].wlan[0].mac 	"numGivenUp AC 0" 	954
scalar scenarioPRJP1.node[60].wlan[0].mac 	"numGivenUp AC 1" 	0
scalar scenarioPRJP1.node[60].wlan[0].mac 	"numGivenUp AC 2" 	0
scalar scenarioPRJP1.node[60].wlan[0].mac 	"numGivenUp AC 3" 	0
scalar scenarioPRJP1.node[60].wlan[0].mac 	"numDropped AC 0" 	0
scalar scenarioPRJP1.node[60].wlan[0].mac 	"numDropped AC 1" 	0
scalar scenarioPRJP1.node[60].wlan[0].mac 	"numDropped AC 2" 	0
scalar scenarioPRJP1.node[60].wlan[0].mac 	"numDropped AC 3" 	0
scalar scenarioPRJP1.node[60].wlan[0].mac 	rcvdPkFromLL:count 	208236
attr interpolationmode  none
attr source  packetReceivedFromLower
attr title  "packets received from lower layer, count"
scalar scenarioPRJP1.node[60].wlan[0].mac 	rcvdPkFromLL:sum(packetBytes) 	30721440
attr interpolationmode  none
attr source  packetReceivedFromLower
attr title  "packets received from lower layer, sum(packetBytes)"
scalar scenarioPRJP1.node[60].wlan[0].mac 	sentDownPk:count 	35773
attr interpolationmode  none
attr source  packetSentToLower
attr title  "packets sent to lower layer, count"
scalar scenarioPRJP1.node[60].wlan[0].mac 	sentDownPk:sum(packetBytes) 	5087468
attr interpolationmode  none
attr source  packetSentToLower
attr title  "packets sent to lower layer, sum(packetBytes)"
scalar scenarioPRJP1.node[60].wlan[0].mac 	rcvdPkFromHL:count 	22924
attr interpolationmode  none
attr source  packetReceivedFromUpper
attr title  "packets received from higher layer, count"
scalar scenarioPRJP1.node[60].wlan[0].mac 	rcvdPkFromHL:sum(packetBytes) 	2540548
attr interpolationmode  none
attr source  packetReceivedFromUpper
attr title  "packets received from higher layer, sum(packetBytes)"
scalar scenarioPRJP1.node[60].wlan[0].mac 	passedUpPk:count 	89757
attr interpolationmode  none
attr source  packetSentToUpper
attr title  "packets passed to higher layer, count"
scalar scenarioPRJP1.node[60].wlan[0].mac 	passedUpPk:sum(packetBytes) 	8364168
attr interpolationmode  none
attr source  packetSentToUpper
attr title  "packets passed to higher layer, sum(packetBytes)"
statistic scenarioPRJP1.node[60].wlan[0].radio 	radioChannel:histogram
field count 1
field mean 3
field stddev -nan
field sum 3
field sqrsum 9
field min 3
field max 3
attr interpolationmode  sample-hold
attr source  radioChannelChanged
attr title  "Radio channel, histogram"
bin	-INF	0
bin	2	0
bin	3	1
bin	4	0
scalar scenarioPRJP1.node[60].wlan[0].radio 	transmissionState:count 	143092
attr interpolationmode  sample-hold
attr source  transmissionStateChanged
attr title  "Radio transmission state, count"
scalar scenarioPRJP1.node[60].wlan[0].radio 	receptionState:count 	492317
attr interpolationmode  sample-hold
attr source  receptionStateChanged
attr title  "Radio reception state, count"
scalar scenarioPRJP1.node[60].wlan[0].radio 	radioMode:count 	71548
attr interpolationmode  sample-hold
attr source  radioModeChanged
attr title  "Radio mode, count"
statistic scenarioPRJP1.node[60].wlan[0].radio 	symbolErrorRate:histogram
field count 0
field mean -nan
field stddev -nan
field sum 0
field sqrsum 0
field min -nan
field max -nan
attr source  symbolErrorRate
attr title  "Symbol error rate, histogram"
bin	-INF	0
bin	-0.5	0
bin	-0.46666666666667	0
bin	-0.43333333333333	0
bin	-0.4	0
bin	-0.36666666666667	0
bin	-0.33333333333333	0
bin	-0.3	0
bin	-0.26666666666667	0
bin	-0.23333333333333	0
bin	-0.2	0
bin	-0.16666666666667	0
bin	-0.13333333333333	0
bin	-0.1	0
bin	-0.066666666666667	0
bin	-0.033333333333333	0
bin	0	0
bin	0.033333333333333	0
bin	0.066666666666667	0
bin	0.1	0
bin	0.13333333333333	0
bin	0.16666666666667	0
bin	0.2	0
bin	0.23333333333333	0
bin	0.26666666666667	0
bin	0.3	0
bin	0.33333333333333	0
bin	0.36666666666667	0
bin	0.4	0
bin	0.43333333333333	0
bin	0.46666666666667	0
bin	0.5	0
statistic scenarioPRJP1.node[60].wlan[0].radio 	bitErrorRate:histogram
field count 0
field mean -nan
field stddev -nan
field sum 0
field sqrsum 0
field min -nan
field max -nan
attr source  bitErrorRate
attr title  "Bit error rate, histogram"
bin	-INF	0
bin	-0.5	0
bin	-0.46666666666667	0
bin	-0.43333333333333	0
bin	-0.4	0
bin	-0.36666666666667	0
bin	-0.33333333333333	0
bin	-0.3	0
bin	-0.26666666666667	0
bin	-0.23333333333333	0
bin	-0.2	0
bin	-0.16666666666667	0
bin	-0.13333333333333	0
bin	-0.1	0
bin	-0.066666666666667	0
bin	-0.033333333333333	0
bin	0	0
bin	0.033333333333333	0
bin	0.066666666666667	0
bin	0.1	0
bin	0.13333333333333	0
bin	0.16666666666667	0
bin	0.2	0
bin	0.23333333333333	0
bin	0.26666666666667	0
bin	0.3	0
bin	0.33333333333333	0
bin	0.36666666666667	0
bin	0.4	0
bin	0.43333333333333	0
bin	0.46666666666667	0
bin	0.5	0
statistic scenarioPRJP1.node[60].wlan[0].radio 	packetErrorRate:histogram
field count 208236
field mean 0.11197542931775
field stddev 0.30725667395668
field sum 23317.315499412
field sqrsum 22269.738027263
field min 0
field max 1
attr source  packetErrorRate
attr title  "Packet error rate, histogram"
bin	-INF	0
bin	-0.49999999999571	0
bin	-0.43333333332961	0
bin	-0.36666666666352	0
bin	-0.29999999999743	0
bin	-0.23333333333133	0
bin	-0.16666666666524	0
bin	-0.099999999999142	0
bin	-0.033333333333047	180371
bin	0.033333333333047	1960
bin	0.099999999999142	935
bin	0.16666666666524	614
bin	0.23333333333133	471
bin	0.29999999999743	382
bin	0.36666666666352	323
bin	0.43333333332961	263
bin	0.49999999999571	262
bin	0.5666666666618	272
bin	0.6333333333279	241
bin	0.69999999999399	273
bin	0.76666666666009	276
bin	0.83333333332618	306
bin	0.89999999999228	536
bin	0.96666666665837	20751
bin	1.0333333333245	0
bin	1.0999999999906	0
bin	1.1666666666567	0
bin	1.2333333333227	0
bin	1.2999999999888	0
bin	1.3666666666549	0
bin	1.433333333321	0
bin	1.4999999999871	0
statistic scenarioPRJP1.node[60].wlan[0].radio 	minSNIR:histogram
field count 208236
field mean 4863.0266040772
field stddev 44704.330907969
field sum 1012657207.9266
field sqrsum 4.2107747908669e+14
field min 0.00040472993469135
field max 9216684.9783534
attr source  minSNIR
attr title  "Min SNIR, histogram"
bin	-INF	0
bin	-276.60243706886	0
bin	-239.52742731061	0
bin	-202.45241755237	0
bin	-165.37740779412	0
bin	-128.30239803587	0
bin	-91.227388277626	0
bin	-54.15237851938	0
bin	-17.077368761134	84168
bin	19.997640997113	24231
bin	57.072650755359	10094
bin	94.147660513605	7423
bin	131.22267027185	8036
bin	168.2976800301	5494
bin	205.37268978834	4708
bin	242.44769954659	3534
bin	279.52270930484	2956
bin	316.59771906308	2350
bin	353.67272882133	2109
bin	390.74773857958	1730
bin	427.82274833782	1383
bin	464.89775809607	1393
bin	501.97276785431	1136
bin	539.04777761256	1116
bin	576.12278737081	921
bin	613.19779712905	996
bin	650.2728068873	747
bin	687.34781664555	885
bin	724.42282640379	801
bin	761.49783616204	707
bin	798.57284592028	678
bin	835.64785567853	40640
scalar scenarioPRJP1.node[60].lo0.lo 	droppedPkBitError:count 	0
attr interpolationmode  none
attr source  dropPkBitError
attr title  "packets dropped/bit error, count"
scalar scenarioPRJP1.node[60].lo0.lo 	droppedPkBitError:sum(packetBytes) 	0
attr interpolationmode  none
attr source  dropPkBitError
attr title  "packets dropped/bit error, sum(packetBytes)"
scalar scenarioPRJP1.node[60].lo0.lo 	rcvdPkFromHL:count 	1
attr interpolationmode  none
attr source  packetReceivedFromUpper
attr title  "packets received from higher layer, count"
scalar scenarioPRJP1.node[60].lo0.lo 	rcvdPkFromHL:sum(packetBytes) 	56
attr interpolationmode  none
attr source  packetReceivedFromUpper
attr title  "packets received from higher layer, sum(packetBytes)"
scalar scenarioPRJP1.node[60].lo0.lo 	passedUpPk:count 	1
attr interpolationmode  none
attr source  packetSentToUpper
attr title  "packets passed to higher layer, count"
scalar scenarioPRJP1.node[60].lo0.lo 	passedUpPk:sum(packetBytes) 	56
attr interpolationmode  none
attr source  packetSentToUpper
attr title  "packets passed to higher layer, sum(packetBytes)"
scalar scenarioPRJP1.node[80].app 	"Total sent" 	2606
scalar scenarioPRJP1.node[80].app 	"Total received" 	176
scalar scenarioPRJP1.node[80].app 	"Total deleted" 	132
scalar scenarioPRJP1.node[80].app 	dropPk:count 	132
attr interpolationmode  none
attr source  dropPk
attr title  "packets dropped, count"
scalar scenarioPRJP1.node[80].app 	dropPk:sum(packetBytes) 	67584
attr interpolationmode  none
attr source  dropPk
attr title  "packets dropped, sum(packetBytes)"
scalar scenarioPRJP1.node[80].app 	outOfOrderPk:count 	36
attr interpolationmode  none
attr source  outOfOrderPk
attr title  "packets received out of order, count"
scalar scenarioPRJP1.node[80].app 	outOfOrderPk:sum(packetBytes) 	18432
attr interpolationmode  none
attr source  outOfOrderPk
attr title  "packets received out of order, sum(packetBytes)"
scalar scenarioPRJP1.node[80].app 	rcvdPk:count 	176
attr interpolationmode  none
attr source  rcvdPk
attr title  "packets received, count"
scalar scenarioPRJP1.node[80].app 	rcvdPk:sum(packetBytes) 	90112
attr interpolationmode  none
attr source  rcvdPk
attr title  "packets received, sum(packetBytes)"
statistic scenarioPRJP1.node[80].app 	endToEndDelay:histogram
field count 176
field mean 1.3974432615847
field stddev 3.881516265685
field sum 245.9500140389
field sqrsum 2980.2806809413
field min 0.000945011007
field max 19.045541894551
attr interpolationmode  none
attr source  messageAge(rcvdPk)
attr title  "delay, histogram"
attr unit  s
bin	-INF	0
bin	-9.0554071097165	0
bin	-7.8478933911886	0
bin	-6.6403796726606	0
bin	-5.4328659541327	0
bin	-4.2253522356048	0
bin	-3.0178385170768	0
bin	-1.8103247985489	0
bin	-0.60281108002096	146
bin	0.60470263850697	5
bin	1.8122163570349	2
bin	3.0197300755628	1
bin	4.2272437940908	5
bin	5.4347575126187	2
bin	6.6422712311466	2
bin	7.8497849496746	1
bin	9.0572986682025	2
bin	10.26481238673	2
bin	11.472326105258	1
bin	12.679839823786	1
bin	13.887353542314	0
bin	15.094867260842	2
bin	16.30238097937	0
bin	17.509894697898	2
bin	18.717408416426	2
bin	19.924922134954	0
bin	21.132435853482	0
bin	22.33994957201	0
bin	23.547463290538	0
bin	24.754977009066	0
bin	25.962490727594	0
bin	27.170004446122	0
scalar scenarioPRJP1.node[80].app 	sentPk:count 	2606
attr interpolationmode  none
attr source  sentPk
attr title  "packets sent, count"
scalar scenarioPRJP1.node[80].app 	sentPk:sum(packetBytes) 	1334272
attr interpolationmode  none
attr source  sentPk
attr title  "packets sent, sum(packetBytes)"
scalar scenarioPRJP1.node[80].udp 	droppedPkBadChecksum:count 	0
attr interpolationmode  none
attr title  "packets dropped (checksum error), count"
scalar scenarioPRJP1.node[80].udp 	droppedPkWrongPort:count 	0
attr interpolationmode  none
attr title  "packets dropped (wrong port), count"
scalar scenarioPRJP1.node[80].udp 	passedUpPk:count 	344
attr interpolationmode  none
attr title  "packets passed up, count"
scalar scenarioPRJP1.node[80].udp 	rcvdPk:count 	344
attr interpolationmode  none
attr source  rcvdPk
attr title  "packets received, count"
scalar scenarioPRJP1.node[80].udp 	rcvdPk:sum(packetBytes) 	178880
attr interpolationmode  none
attr source  rcvdPk
attr title  "packets received, sum(packetBytes)"
scalar scenarioPRJP1.node[80].udp 	sentPk:count 	2606
attr interpolationmode  none
attr source  sentPk
attr title  "packets sent, count"
scalar scenarioPRJP1.node[80].udp 	sentPk:sum(packetBytes) 	1355120
attr interpolationmode  none
attr source  sentPk
attr title  "packets sent, sum(packetBytes)"
scalar scenarioPRJP1.node[80].networkLayer.arp 	failedARPResolution:count 	10
attr title  "ARP failed resolutions, count"
scalar scenarioPRJP1.node[80].networkLayer.arp 	completedARPResolution:count 	831
attr title  "ARP completed resolutions, count"
scalar scenarioPRJP1.node[80].networkLayer.arp 	initiatedARPResolution:count 	79
attr title  "ARP initiated resolutions, count"
scalar scenarioPRJP1.node[80].networkLayer.arp 	sentReply:count 	86
attr title  "ARP replies sent, count"
scalar scenarioPRJP1.node[80].networkLayer.arp 	sentReq:count 	111
attr title  "ARP request sent, count"
scalar scenarioPRJP1.node[80].mobility 	startTime 	9.7
scalar scenarioPRJP1.node[80].mobility 	totalTime 	940.2
scalar scenarioPRJP1.node[80].mobility 	stopTime 	950
scalar scenarioPRJP1.node[80].mobility 	minSpeed 	2.4756165785814e-13
scalar scenarioPRJP1.node[80].mobility 	maxSpeed 	19.240667795288
scalar scenarioPRJP1.node[80].mobility 	totalDistance 	8540.819009488
scalar scenarioPRJP1.node[80].mobility 	totalCO2Emission 	2520.76597131
scalar scenarioPRJP1.node[80].wlan[0].mgmt 	dataQueueLen:max 	15
attr interpolationmode  sample-hold
attr title  "data queue length, max"
scalar scenarioPRJP1.node[80].wlan[0].mgmt 	dataQueueLen:timeavg 	0
attr interpolationmode  sample-hold
attr title  "data queue length, timeavg"
scalar scenarioPRJP1.node[80].wlan[0].mgmt 	dropPkByQueue:count 	0
attr interpolationmode  none
attr source  dropPkByQueue
attr title  "packets dropped by queue, count"
scalar scenarioPRJP1.node[80].wlan[0].mgmt 	dropPkByQueue:sum(packetBytes) 	0
attr interpolationmode  none
attr source  dropPkByQueue
attr title  "packets dropped by queue, sum(packetBytes)"
scalar scenarioPRJP1.node[80].wlan[0].mac 	"number of received packets" 	3795
scalar scenarioPRJP1.node[80].wlan[0].mac 	"number of collisions" 	36956
scalar scenarioPRJP1.node[80].wlan[0].mac 	"number of internal collisions" 	0
scalar scenarioPRJP1.node[80].wlan[0].mac 	"number of retry for AC 0" 	6023
scalar scenarioPRJP1.node[80].wlan[0].mac 	"number of retry for AC 1" 	0
scalar scenarioPRJP1.node[80].wlan[0].mac 	"number of retry for AC 2" 	0
scalar scenarioPRJP1.node[80].wlan[0].mac 	"number of retry for AC 3" 	0
scalar scenarioPRJP1.node[80].wlan[0].mac 	"sent and received bits" 	16409376
scalar scenarioPRJP1.node[80].wlan[0].mac 	"sent packet within AC 0" 	1047
scalar scenarioPRJP1.node[80].wlan[0].mac 	"sent packet within AC 1" 	0
scalar scenarioPRJP1.node[80].wlan[0].mac 	"sent packet within AC 2" 	0
scalar scenarioPRJP1.node[80].wlan[0].mac 	"sent packet within AC 3" 	0
scalar scenarioPRJP1.node[80].wlan[0].mac 	"sent in TXOP " 	0
scalar scenarioPRJP1.node[80].wlan[0].mac 	"sentWithoutRetry AC 0" 	960
scalar scenarioPRJP1.node[80].wlan[0].mac 	"sentWithoutRetry AC 1" 	0
scalar scenarioPRJP1.node[80].wlan[0].mac 	"sentWithoutRetry AC 2" 	0
scalar scenarioPRJP1.node[80].wlan[0].mac 	"sentWithoutRetry AC 3" 	0
scalar scenarioPRJP1.node[80].wlan[0].mac 	"numGivenUp AC 0" 	977
scalar scenarioPRJP1.node[80].wlan[0].mac 	"numGivenUp AC 1" 	0
scalar scenarioPRJP1.node[80].wlan[0].mac 	"numGivenUp AC 2" 	0
scalar scenarioPRJP1.node[80].wlan[0].mac 	"numGivenUp AC 3" 	0
scalar scenarioPRJP1.node[80].wlan[0].mac 	"numDropped AC 0" 	0
scalar scenarioPRJP1.node[80].wlan[0].mac 	"numDropped AC 1" 	0
scalar scenarioPRJP1.node[80].wlan[0].mac 	"numDropped AC 2" 	0
scalar scenarioPRJP1.node[80].wlan[0].mac 	"numDropped AC 3" 	0
scalar scenarioPRJP1.node[80].wlan[0].mac 	rcvdPkFromLL:count 	227664
attr interpolationmode  none
attr source  packetReceivedFromLower
attr title  "packets received from lower layer, count"
scalar scenarioPRJP1.node[80].wlan[0].mac 	rcvdPkFromLL:sum(packetBytes) 	39793106
attr interpolationmode  none
attr source  packetReceivedFromLower
attr title  "packets received from lower layer, sum(packetBytes)"
scalar scenarioPRJP1.node[80].wlan[0].mac 	sentDownPk:count 	30717
attr interpolationmode  none
attr source  packetSentToLower
attr title  "packets sent to lower layer, count"
scalar scenarioPRJP1.node[80].wlan[0].mac 	sentDownPk:sum(packetBytes) 	4916786
attr interpolationmode  none
attr source  packetSentToLower
attr title  "packets sent to lower layer, sum(packetBytes)"
scalar scenarioPRJP1.node[80].wlan[0].mac 	rcvdPkFromHL:count 	20899
attr interpolationmode  none
attr source  packetReceivedFromUpper
attr title  "packets received from higher layer, count"
scalar scenarioPRJP1.node[80].wlan[0].mac 	rcvdPkFromHL:sum(packetBytes) 	2443256
attr interpolationmode  none
attr source  packetReceivedFromUpper
attr title  "packets received from higher layer, sum(packetBytes)"
scalar scenarioPRJP1.node[80].wlan[0].mac 	passedUpPk:count 	107211
attr interpolationmode  none
attr source  packetSentToUpper
attr title  "packets passed to higher layer, count"
scalar scenarioPRJP1.node[80].wlan[0].mac 	passedUpPk:sum(packetBytes) 	9952008
attr interpolationmode  none
attr source  packetSentToUpper
attr title  "packets passed to higher layer, sum(packetBytes)"
statistic scenarioPRJP1.node[80].wlan[0].radio 	radioChannel:histogram
field count 1
field mean 3
field stddev -nan
field sum 3
field sqrsum 9
field min 3
field max 3
attr interpolationmode  sample-hold
attr source  radioChannelChanged
attr title  "Radio channel, histogram"
bin	-INF	0
bin	2	0
bin	3	1
bin	4	0
scalar scenarioPRJP1.node[80].wlan[0].radio 	transmissionState:count 	122868
attr interpolationmode  sample-hold
attr source  transmissionStateChanged
attr title  "Radio transmission state, count"
scalar scenarioPRJP1.node[80].wlan[0].radio 	receptionState:count 	522202
attr interpolationmode  sample-hold
attr source  receptionStateChanged
attr title  "Radio reception state, count"
scalar scenarioPRJP1.node[80].wlan[0].radio 	radioMode:count 	61436
attr interpolationmode  sample-hold
attr source  radioModeChanged
attr title  "Radio mode, count"
statistic scenarioPRJP1.node[80].wlan[0].radio 	symbolErrorRate:histogram
field count 0
field mean -nan
field stddev -nan
field sum 0
field sqrsum 0
field min -nan
field max -nan
attr source  symbolErrorRate
attr title  "Symbol error rate, histogram"
bin	-INF	0
bin	-0.5	0
bin	-0.46666666666667	0
bin	-0.43333333333333	0
bin	-0.4	0
bin	-0.36666666666667	0
bin	-0.33333333333333	0
bin	-0.3	0
bin	-0.26666666666667	0
bin	-0.23333333333333	0
bin	-0.2	0
bin	-0.16666666666667	0
bin	-0.13333333333333	0
bin	-0.1	0
bin	-0.066666666666667	0
bin	-0.033333333333333	0
bin	0	0
bin	0.033333333333333	0
bin	0.066666666666667	0
bin	0.1	0
bin	0.13333333333333	0
bin	0.16666666666667	0
bin	0.2	0
bin	0.23333333333333	0
bin	0.26666666666667	0
bin	0.3	0
bin	0.33333333333333	0
bin	0.36666666666667	0
bin	0.4	0
bin	0.43333333333333	0
bin	0.46666666666667	0
bin	0.5	0
statistic scenarioPRJP1.node[80].wlan[0].radio 	bitErrorRate:histogram
field count 0
field mean -nan
field stddev -nan
field sum 0
field sqrsum 0
field min -nan
field max -nan
attr source  bitErrorRate
attr title  "Bit error rate, histogram"
bin	-INF	0
bin	-0.5	0
bin	-0.46666666666667	0
bin	-0.43333333333333	0
bin	-0.4	0
bin	-0.36666666666667	0
bin	-0.33333333333333	0
bin	-0.3	0
bin	-0.26666666666667	0
bin	-0.23333333333333	0
bin	-0.2	0
bin	-0.16666666666667	0
bin	-0.13333333333333	0
bin	-0.1	0
bin	-0.066666666666667	0
bin	-0.033333333333333	0
bin	0	0
bin	0.033333333333333	0
bin	0.066666666666667	0
bin	0.1	0
bin	0.13333333333333	0
bin	0.16666666666667	0
bin	0.2	0
bin	0.23333333333333	0
bin	0.26666666666667	0
bin	0.3	0
bin	0.33333333333333	0
bin	0.36666666666667	0
bin	0.4	0
bin	0.43333333333333	0
bin	0.46666666666667	0
bin	0.5	0
statistic scenarioPRJP1.node[80].wlan[0].radio 	packetErrorRate:histogram
field count 227664
field mean 0.13949960532956
field stddev 0.33726792732302
field sum 31759.038147748
field sqrsum 30326.960948164
field min 0
field max 1
attr source  packetErrorRate
attr title  "Packet error rate, histogram"
bin	-INF	0
bin	-0.5	0
bin	-0.43333333333333	0
bin	-0.36666666666667	0
bin	-0.3	0
bin	-0.23333333333333	0
bin	-0.16666666666667	0
bin	-0.1	0
bin	-0.033333333333333	189843
bin	0.033333333333333	2567
bin	0.1	1168
bin	0.16666666666667	833
bin	0.23333333333333	643
bin	0.3	522
bin	0.36666666666667	441
bin	0.43333333333333	403
bin	0.5	354
bin	0.56666666666667	358
bin	0.63333333333333	389
bin	0.7	373
bin	0.76666666666667	402
bin	0.83333333333333	460
bin	0.9	705
bin	0.96666666666667	28203
bin	1.0333333333333	0
bin	1.1	0
bin	1.1666666666667	0
bin	1.2333333333333	0
bin	1.3	0
bin	1.3666666666667	0
bin	1.4333333333333	0
bin	1.5	0
statistic scenarioPRJP1.node[80].wlan[0].radio 	minSNIR:histogram
field count 227664
field mean 5586.907377278
field stddev 58357.890925436
field sum 1271937681.1406
field sqrsum 7.8244519896163e+14
field min 0.00017039040711469
field max 9252529.3660516
attr source  minSNIR
attr title  "Min SNIR, histogram"
bin	-INF	0
bin	-5062.2354614605	0
bin	-4387.1125416762	0
bin	-3711.9896218919	0
bin	-3036.8667021076	0
bin	-2361.7437823234	0
bin	-1686.6208625391	0
bin	-1011.4979427548	0
bin	-336.37502297053	176278
bin	338.74789681375	18908
bin	1013.870816598	5871
bin	1688.9937363823	3806
bin	2364.1166561666	2690
bin	3039.2395759509	1563
bin	3714.3624957351	1266
bin	4389.4854155194	1037
bin	5064.6083353037	871
bin	5739.731255088	695
bin	6414.8541748723	559
bin	7089.9770946565	481
bin	7765.1000144408	537
bin	8440.2229342251	445
bin	9115.3458540094	510
bin	9790.4687737937	396
bin	10465.591693578	397
bin	11140.714613362	426
bin	11815.837533146	736
bin	12490.960452931	509
bin	13166.083372715	319
bin	13841.206292499	232
bin	14516.329212284	228
bin	15191.452132068	8904
scalar scenarioPRJP1.node[80].lo0.lo 	droppedPkBitError:count 	0
attr interpolationmode  none
attr source  dropPkBitError
attr title  "packets dropped/bit error, count"
scalar scenarioPRJP1.node[80].lo0.lo 	droppedPkBitError:sum(packetBytes) 	0
attr interpolationmode  none
attr source  dropPkBitError
attr title  "packets dropped/bit error, sum(packetBytes)"
scalar scenarioPRJP1.node[80].lo0.lo 	rcvdPkFromHL:count 	0
attr interpolationmode  none
attr source  packetReceivedFromUpper
attr title  "packets received from higher layer, count"
scalar scenarioPRJP1.node[80].lo0.lo 	rcvdPkFromHL:sum(packetBytes) 	0
attr interpolationmode  none
attr source  packetReceivedFromUpper
attr title  "packets received from higher layer, sum(packetBytes)"
scalar scenarioPRJP1.node[80].lo0.lo 	passedUpPk:count 	0
attr interpolationmode  none
attr source  packetSentToUpper
attr title  "packets passed to higher layer, count"
scalar scenarioPRJP1.node[80].lo0.lo 	passedUpPk:sum(packetBytes) 	0
attr interpolationmode  none
attr source  packetSentToUpper
attr title  "packets passed to higher layer, sum(packetBytes)"
scalar scenarioPRJP1.node[1].app 	"Total sent" 	2605
scalar scenarioPRJP1.node[1].app 	"Total received" 	178
scalar scenarioPRJP1.node[1].app 	"Total deleted" 	106
scalar scenarioPRJP1.node[1].app 	dropPk:count 	106
attr interpolationmode  none
attr source  dropPk
attr title  "packets dropped, count"
scalar scenarioPRJP1.node[1].app 	dropPk:sum(packetBytes) 	54272
attr interpolationmode  none
attr source  dropPk
attr title  "packets dropped, sum(packetBytes)"
scalar scenarioPRJP1.node[1].app 	outOfOrderPk:count 	19
attr interpolationmode  none
attr source  outOfOrderPk
attr title  "packets received out of order, count"
scalar scenarioPRJP1.node[1].app 	outOfOrderPk:sum(packetBytes) 	9728
attr interpolationmode  none
attr source  outOfOrderPk
attr title  "packets received out of order, sum(packetBytes)"
scalar scenarioPRJP1.node[1].app 	rcvdPk:count 	178
attr interpolationmode  none
attr source  rcvdPk
attr title  "packets received, count"
scalar scenarioPRJP1.node[1].app 	rcvdPk:sum(packetBytes) 	91136
attr interpolationmode  none
attr source  rcvdPk
attr title  "packets received, sum(packetBytes)"
statistic scenarioPRJP1.node[1].app 	endToEndDelay:histogram
field count 178
field mean 1.5383845780392
field stddev 4.1625170818128
field sum 273.83245489098
field sqrsum 3488.0587023507
field min 0.000945079944
field max 19.277812002577
attr interpolationmode  none
attr source  messageAge(rcvdPk)
attr title  "delay, histogram"
attr unit  s
bin	-INF	0
bin	-9.6374883813725	0
bin	-8.3523639198636	0
bin	-7.0672394583548	0
bin	-5.7821149968459	0
bin	-4.496990535337	0
bin	-3.2118660738282	0
bin	-1.9267416123193	0
bin	-0.64161715081043	144
bin	0.64350731069843	10
bin	1.9286317722073	2
bin	3.2137562337162	1
bin	4.498880695225	3
bin	5.7840051567339	0
bin	7.0691296182428	5
bin	8.3542540797516	1
bin	9.6393785412605	1
bin	10.924503002769	2
bin	12.209627464278	1
bin	13.494751925787	0
bin	14.779876387296	1
bin	16.065000848805	3
bin	17.350125310314	3
bin	18.635249771823	1
bin	19.920374233331	0
bin	21.20549869484	0
bin	22.490623156349	0
bin	23.775747617858	0
bin	25.060872079367	0
bin	26.345996540876	0
bin	27.631121002385	0
bin	28.916245463894	0
scalar scenarioPRJP1.node[1].app 	sentPk:count 	2605
attr interpolationmode  none
attr source  sentPk
attr title  "packets sent, count"
scalar scenarioPRJP1.node[1].app 	sentPk:sum(packetBytes) 	1333760
attr interpolationmode  none
attr source  sentPk
attr title  "packets sent, sum(packetBytes)"
scalar scenarioPRJP1.node[1].udp 	droppedPkBadChecksum:count 	0
attr interpolationmode  none
attr title  "packets dropped (checksum error), count"
scalar scenarioPRJP1.node[1].udp 	droppedPkWrongPort:count 	0
attr interpolationmode  none
attr title  "packets dropped (wrong port), count"
scalar scenarioPRJP1.node[1].udp 	passedUpPk:count 	303
attr interpolationmode  none
attr title  "packets passed up, count"
scalar scenarioPRJP1.node[1].udp 	rcvdPk:count 	303
attr interpolationmode  none
attr source  rcvdPk
attr title  "packets received, count"
scalar scenarioPRJP1.node[1].udp 	rcvdPk:sum(packetBytes) 	157560
attr interpolationmode  none
attr source  rcvdPk
attr title  "packets received, sum(packetBytes)"
scalar scenarioPRJP1.node[1].udp 	sentPk:count 	2605
attr interpolationmode  none
attr source  sentPk
attr title  "packets sent, count"
scalar scenarioPRJP1.node[1].udp 	sentPk:sum(packetBytes) 	1354600
attr interpolationmode  none
attr source  sentPk
attr title  "packets sent, sum(packetBytes)"
scalar scenarioPRJP1.node[1].networkLayer.arp 	failedARPResolution:count 	7
attr title  "ARP failed resolutions, count"
scalar scenarioPRJP1.node[1].networkLayer.arp 	completedARPResolution:count 	761
attr title  "ARP completed resolutions, count"
scalar scenarioPRJP1.node[1].networkLayer.arp 	initiatedARPResolution:count 	91
attr title  "ARP initiated resolutions, count"
scalar scenarioPRJP1.node[1].networkLayer.arp 	sentReply:count 	74
attr title  "ARP replies sent, count"
scalar scenarioPRJP1.node[1].networkLayer.arp 	sentReq:count 	130
attr title  "ARP request sent, count"
scalar scenarioPRJP1.node[1].mobility 	startTime 	0.1
scalar scenarioPRJP1.node[1].mobility 	totalTime 	949.8
scalar scenarioPRJP1.node[1].mobility 	stopTime 	950
scalar scenarioPRJP1.node[1].mobility 	minSpeed 	2.4755261908493e-13
scalar scenarioPRJP1.node[1].mobility 	maxSpeed 	16.378022833638
scalar scenarioPRJP1.node[1].mobility 	totalDistance 	9185.3155357406
scalar scenarioPRJP1.node[1].mobility 	totalCO2Emission 	2415.1959357772
scalar scenarioPRJP1.node[1].wlan[0].mgmt 	dataQueueLen:max 	41
attr interpolationmode  sample-hold
attr title  "data queue length, max"
scalar scenarioPRJP1.node[1].wlan[0].mgmt 	dataQueueLen:timeavg 	0
attr interpolationmode  sample-hold
attr title  "data queue length, timeavg"
scalar scenarioPRJP1.node[1].wlan[0].mgmt 	dropPkByQueue:count 	0
attr interpolationmode  none
attr source  dropPkByQueue
attr title  "packets dropped by queue, count"
scalar scenarioPRJP1.node[1].wlan[0].mgmt 	dropPkByQueue:sum(packetBytes) 	0
attr interpolationmode  none
attr source  dropPkByQueue
attr title  "packets dropped by queue, sum(packetBytes)"
scalar scenarioPRJP1.node[1].wlan[0].mac 	"number of received packets" 	13784
scalar scenarioPRJP1.node[1].wlan[0].mac 	"number of collisions" 	34920
scalar scenarioPRJP1.node[1].wlan[0].mac 	"number of internal collisions" 	6
scalar scenarioPRJP1.node[1].wlan[0].mac 	"number of retry for AC 0" 	7544
scalar scenarioPRJP1.node[1].wlan[0].mac 	"number of retry for AC 1" 	66
scalar scenarioPRJP1.node[1].wlan[0].mac 	"number of retry for AC 2" 	0
scalar scenarioPRJP1.node[1].wlan[0].mac 	"number of retry for AC 3" 	0
scalar scenarioPRJP1.node[1].wlan[0].mac 	"sent and received bits" 	21944096
scalar scenarioPRJP1.node[1].wlan[0].mac 	"sent packet within AC 0" 	10878
scalar scenarioPRJP1.node[1].wlan[0].mac 	"sent packet within AC 1" 	1
scalar scenarioPRJP1.node[1].wlan[0].mac 	"sent packet within AC 2" 	0
scalar scenarioPRJP1.node[1].wlan[0].mac 	"sent packet within AC 3" 	0
scalar scenarioPRJP1.node[1].wlan[0].mac 	"sent in TXOP " 	0
scalar scenarioPRJP1.node[1].wlan[0].mac 	"sentWithoutRetry AC 0" 	10323
scalar scenarioPRJP1.node[1].wlan[0].mac 	"sentWithoutRetry AC 1" 	1
scalar scenarioPRJP1.node[1].wlan[0].mac 	"sentWithoutRetry AC 2" 	0
scalar scenarioPRJP1.node[1].wlan[0].mac 	"sentWithoutRetry AC 3" 	0
scalar scenarioPRJP1.node[1].wlan[0].mac 	"numGivenUp AC 0" 	1129
scalar scenarioPRJP1.node[1].wlan[0].mac 	"numGivenUp AC 1" 	11
scalar scenarioPRJP1.node[1].wlan[0].mac 	"numGivenUp AC 2" 	0
scalar scenarioPRJP1.node[1].wlan[0].mac 	"numGivenUp AC 3" 	0
scalar scenarioPRJP1.node[1].wlan[0].mac 	"numDropped AC 0" 	10
scalar scenarioPRJP1.node[1].wlan[0].mac 	"numDropped AC 1" 	0
scalar scenarioPRJP1.node[1].wlan[0].mac 	"numDropped AC 2" 	0
scalar scenarioPRJP1.node[1].wlan[0].mac 	"numDropped AC 3" 	0
scalar scenarioPRJP1.node[1].wlan[0].mac 	rcvdPkFromLL:count 	315155
attr interpolationmode  none
attr source  packetReceivedFromLower
attr title  "packets received from lower layer, count"
scalar scenarioPRJP1.node[1].wlan[0].mac 	rcvdPkFromLL:sum(packetBytes) 	40131594
attr interpolationmode  none
attr source  packetReceivedFromLower
attr title  "packets received from lower layer, sum(packetBytes)"
scalar scenarioPRJP1.node[1].wlan[0].mac 	sentDownPk:count 	51229
attr interpolationmode  none
attr source  packetSentToLower
attr title  "packets sent to lower layer, count"
scalar scenarioPRJP1.node[1].wlan[0].mac 	sentDownPk:sum(packetBytes) 	6175532
attr interpolationmode  none
attr source  packetSentToLower
[...]
attr interpolationmode  none
attr source  packetSentToUpper
attr title  "packets passed to higher layer, sum(packetBytes)"
statistic scenarioPRJP1.node[79].wlan[0].radio 	radioChannel:histogram
field count 1
field mean 3
field stddev -nan
field sum 3
field sqrsum 9
field min 3
field max 3
attr interpolationmode  sample-hold
attr source  radioChannelChanged
attr title  "Radio channel, histogram"
bin	-INF	0
bin	2	0
bin	3	1
bin	4	0
scalar scenarioPRJP1.node[79].wlan[0].radio 	transmissionState:count 	106096
attr interpolationmode  sample-hold
attr source  transmissionStateChanged
attr title  "Radio transmission state, count"
scalar scenarioPRJP1.node[79].wlan[0].radio 	receptionState:count 	411692
attr interpolationmode  sample-hold
attr source  receptionStateChanged
attr title  "Radio reception state, count"
scalar scenarioPRJP1.node[79].wlan[0].radio 	radioMode:count 	53050
attr interpolationmode  sample-hold
attr source  radioModeChanged
attr title  "Radio mode, count"
statistic scenarioPRJP1.node[79].wlan[0].radio 	symbolErrorRate:histogram
field count 0
field mean -nan
field stddev -nan
field sum 0
field sqrsum 0
field min -nan
field max -nan
attr source  symbolErrorRate
attr title  "Symbol error rate, histogram"
bin	-INF	0
bin	-0.5	0
bin	-0.46666666666667	0
bin	-0.43333333333333	0
bin	-0.4	0
bin	-0.36666666666667	0
bin	-0.33333333333333	0
bin	-0.3	0
bin	-0.26666666666667	0
bin	-0.23333333333333	0
bin	-0.2	0
bin	-0.16666666666667	0
bin	-0.13333333333333	0
bin	-0.1	0
bin	-0.066666666666667	0
bin	-0.033333333333333	0
bin	0	0
bin	0.033333333333333	0
bin	0.066666666666667	0
bin	0.1	0
bin	0.13333333333333	0
bin	0.16666666666667	0
bin	0.2	0
bin	0.23333333333333	0
bin	0.26666666666667	0
bin	0.3	0
bin	0.33333333333333	0
bin	0.36666666666667	0
bin	0.4	0
bin	0.43333333333333	0
bin	0.46666666666667	0
bin	0.5	0
statistic scenarioPRJP1.node[79].wlan[0].radio 	bitErrorRate:histogram
field count 0
field mean -nan
field stddev -nan
field sum 0
field sqrsum 0
field min -nan
field max -nan
attr source  bitErrorRate
attr title  "Bit error rate, histogram"
bin	-INF	0
bin	-0.5	0
bin	-0.46666666666667	0
bin	-0.43333333333333	0
bin	-0.4	0
bin	-0.36666666666667	0
bin	-0.33333333333333	0
bin	-0.3	0
bin	-0.26666666666667	0
bin	-0.23333333333333	0
bin	-0.2	0
bin	-0.16666666666667	0
bin	-0.13333333333333	0
bin	-0.1	0
bin	-0.066666666666667	0
bin	-0.033333333333333	0
bin	0	0
bin	0.033333333333333	0
bin	0.066666666666667	0
bin	0.1	0
bin	0.13333333333333	0
bin	0.16666666666667	0
bin	0.2	0
bin	0.23333333333333	0
bin	0.26666666666667	0
bin	0.3	0
bin	0.33333333333333	0
bin	0.36666666666667	0
bin	0.4	0
bin	0.43333333333333	0
bin	0.46666666666667	0
bin	0.5	0
statistic scenarioPRJP1.node[79].wlan[0].radio 	packetErrorRate:histogram
field count 177755
field mean 0.11167214996019
field stddev 0.30643380053311
field sum 19850.283016174
field sqrsum 18908.121961335
field min 0
field max 1
attr source  packetErrorRate
attr title  "Packet error rate, histogram"
bin	-INF	0
bin	-0.5	0
bin	-0.43333333333333	0
bin	-0.36666666666667	0
bin	-0.3	0
bin	-0.23333333333333	0
bin	-0.16666666666667	0
bin	-0.1	0
bin	-0.033333333333333	153863
bin	0.033333333333333	1797
bin	0.1	766
bin	0.16666666666667	529
bin	0.23333333333333	407
bin	0.3	328
bin	0.36666666666667	301
bin	0.43333333333333	263
bin	0.5	230
bin	0.56666666666667	245
bin	0.63333333333333	221
bin	0.7	254
bin	0.76666666666667	271
bin	0.83333333333333	303
bin	0.9	482
bin	0.96666666666667	17495
bin	1.0333333333333	0
bin	1.1	0
bin	1.1666666666667	0
bin	1.2333333333333	0
bin	1.3	0
bin	1.3666666666667	0
bin	1.4333333333333	0
bin	1.5	0
statistic scenarioPRJP1.node[79].wlan[0].radio 	minSNIR:histogram
field count 177755
field mean 4154.5267362498
field stddev 35725.768585746
field sum 738487900.00208
field sqrsum 2.2994092671739e+14
field min 0.00024703642215782
field max 1014781.2902641
attr source  minSNIR
attr title  "Min SNIR, histogram"
bin	-INF	0
bin	-209.51772116602	0
bin	-181.3945149285	0
bin	-153.27130869097	0
bin	-125.14810245345	0
bin	-97.024896215921	0
bin	-68.901689978397	0
bin	-40.778483740872	0
bin	-12.655277503347	66405
bin	15.467928734177	23463
bin	43.591134971702	10416
bin	71.714341209227	6491
bin	99.837547446752	4764
bin	127.96075368428	5311
bin	156.0839599218	4045
bin	184.20716615933	3300
bin	212.33037239685	2722
bin	240.45357863438	2452
bin	268.5767848719	1880
bin	296.69999110942	1717
bin	324.82319734695	1432
bin	352.94640358447	1273
bin	381.069609822	1159
bin	409.19281605952	1093
bin	437.31602229705	901
bin	465.43922853457	925
bin	493.5624347721	762
bin	521.68564100962	732
bin	549.80884724715	796
bin	577.93205348467	609
bin	606.0552597222	568
bin	634.17846595972	34539
scalar scenarioPRJP1.node[79].lo0.lo 	droppedPkBitError:count 	0
attr interpolationmode  none
attr source  dropPkBitError
attr title  "packets dropped/bit error, count"
scalar scenarioPRJP1.node[79].lo0.lo 	droppedPkBitError:sum(packetBytes) 	0
attr interpolationmode  none
attr source  dropPkBitError
attr title  "packets dropped/bit error, sum(packetBytes)"
scalar scenarioPRJP1.node[79].lo0.lo 	rcvdPkFromHL:count 	0
attr interpolationmode  none
attr source  packetReceivedFromUpper
attr title  "packets received from higher layer, count"
scalar scenarioPRJP1.node[79].lo0.lo 	rcvdPkFromHL:sum(packetBytes) 	0
attr interpolationmode  none
attr source  packetReceivedFromUpper
attr title  "packets received from higher layer, sum(packetBytes)"
scalar scenarioPRJP1.node[79].lo0.lo 	passedUpPk:count 	0
attr interpolationmode  none
attr source  packetSentToUpper
attr title  "packets passed to higher layer, count"
scalar scenarioPRJP1.node[79].lo0.lo 	passedUpPk:sum(packetBytes) 	0
attr interpolationmode  none
attr source  packetSentToUpper
attr title  "packets passed to higher layer, sum(packetBytes)"
scalar scenarioPRJP1.node[99].app 	"Total sent" 	2624
scalar scenarioPRJP1.node[99].app 	"Total received" 	170
scalar scenarioPRJP1.node[99].app 	"Total deleted" 	85
scalar scenarioPRJP1.node[99].app 	dropPk:count 	85
attr interpolationmode  none
attr source  dropPk
attr title  "packets dropped, count"
scalar scenarioPRJP1.node[99].app 	dropPk:sum(packetBytes) 	43520
attr interpolationmode  none
attr source  dropPk
attr title  "packets dropped, sum(packetBytes)"
scalar scenarioPRJP1.node[99].app 	outOfOrderPk:count 	29
attr interpolationmode  none
attr source  outOfOrderPk
attr title  "packets received out of order, count"
scalar scenarioPRJP1.node[99].app 	outOfOrderPk:sum(packetBytes) 	14848
attr interpolationmode  none
attr source  outOfOrderPk
attr title  "packets received out of order, sum(packetBytes)"
scalar scenarioPRJP1.node[99].app 	rcvdPk:count 	170
attr interpolationmode  none
attr source  rcvdPk
attr title  "packets received, count"
scalar scenarioPRJP1.node[99].app 	rcvdPk:sum(packetBytes) 	87040
attr interpolationmode  none
attr source  rcvdPk
attr title  "packets received, sum(packetBytes)"
statistic scenarioPRJP1.node[99].app 	endToEndDelay:histogram
field count 170
field mean 1.6732548707471
field stddev 4.2884620160637
field sum 284.453328027
field sqrsum 3584.0261089057
field min 0.000945068822
field max 18.884330929151
attr interpolationmode  none
attr source  messageAge(rcvdPk)
attr title  "delay, histogram"
attr unit  s
bin	-INF	0
bin	-8.4725965521065	0
bin	-7.3427910026494	0
bin	-6.2129854531922	0
bin	-5.0831799037351	0
bin	-3.953374354278	0
bin	-2.8235688048208	0
bin	-1.6937632553637	0
bin	-0.56395770590657	132
bin	0.56584784355057	13
bin	1.6956533930077	4
bin	2.8254589424648	0
bin	3.955264491922	1
bin	5.0850700413791	1
bin	6.2148755908362	0
bin	7.3446811402934	1
bin	8.4744866897505	2
bin	9.6042922392076	6
bin	10.734097788665	0
bin	11.863903338122	1
bin	12.993708887579	0
bin	14.123514437036	2
bin	15.253319986493	1
bin	16.38312553595	4
bin	17.512931085408	1
bin	18.642736634865	1
bin	19.772542184322	0
bin	20.902347733779	0
bin	22.032153283236	0
bin	23.161958832693	0
bin	24.29176438215	0
bin	25.421569931608	0
scalar scenarioPRJP1.node[99].app 	sentPk:count 	2624
attr interpolationmode  none
attr source  sentPk
attr title  "packets sent, count"
scalar scenarioPRJP1.node[99].app 	sentPk:sum(packetBytes) 	1343488
attr interpolationmode  none
attr source  sentPk
attr title  "packets sent, sum(packetBytes)"
scalar scenarioPRJP1.node[99].udp 	droppedPkBadChecksum:count 	0
attr interpolationmode  none
attr title  "packets dropped (checksum error), count"
scalar scenarioPRJP1.node[99].udp 	droppedPkWrongPort:count 	0
attr interpolationmode  none
attr title  "packets dropped (wrong port), count"
scalar scenarioPRJP1.node[99].udp 	passedUpPk:count 	284
attr interpolationmode  none
attr title  "packets passed up, count"
scalar scenarioPRJP1.node[99].udp 	rcvdPk:count 	284
attr interpolationmode  none
attr source  rcvdPk
attr title  "packets received, count"
scalar scenarioPRJP1.node[99].udp 	rcvdPk:sum(packetBytes) 	147680
attr interpolationmode  none
attr source  rcvdPk
attr title  "packets received, sum(packetBytes)"
scalar scenarioPRJP1.node[99].udp 	sentPk:count 	2624
attr interpolationmode  none
attr source  sentPk
attr title  "packets sent, count"
scalar scenarioPRJP1.node[99].udp 	sentPk:sum(packetBytes) 	1364480
attr interpolationmode  none
attr source  sentPk
attr title  "packets sent, sum(packetBytes)"
scalar scenarioPRJP1.node[99].networkLayer.arp 	failedARPResolution:count 	10
attr title  "ARP failed resolutions, count"
scalar scenarioPRJP1.node[99].networkLayer.arp 	completedARPResolution:count 	692
attr title  "ARP completed resolutions, count"
scalar scenarioPRJP1.node[99].networkLayer.arp 	initiatedARPResolution:count 	108
attr title  "ARP initiated resolutions, count"
scalar scenarioPRJP1.node[99].networkLayer.arp 	sentReply:count 	61
attr title  "ARP replies sent, count"
scalar scenarioPRJP1.node[99].networkLayer.arp 	sentReq:count 	151
attr title  "ARP request sent, count"
scalar scenarioPRJP1.node[99].mobility 	startTime 	9.9
scalar scenarioPRJP1.node[99].mobility 	totalTime 	940
scalar scenarioPRJP1.node[99].mobility 	stopTime 	950
scalar scenarioPRJP1.node[99].mobility 	minSpeed 	2.4755451293518e-13
scalar scenarioPRJP1.node[99].mobility 	maxSpeed 	21.671940352945
scalar scenarioPRJP1.node[99].mobility 	totalDistance 	11160.001586428
scalar scenarioPRJP1.node[99].mobility 	totalCO2Emission 	3102.2756280582
scalar scenarioPRJP1.node[99].wlan[0].mgmt 	dataQueueLen:max 	25
attr interpolationmode  sample-hold
attr title  "data queue length, max"
scalar scenarioPRJP1.node[99].wlan[0].mgmt 	dataQueueLen:timeavg 	0
attr interpolationmode  sample-hold
attr title  "data queue length, timeavg"
scalar scenarioPRJP1.node[99].wlan[0].mgmt 	dropPkByQueue:count 	0
attr interpolationmode  none
attr source  dropPkByQueue
attr title  "packets dropped by queue, count"
scalar scenarioPRJP1.node[99].wlan[0].mgmt 	dropPkByQueue:sum(packetBytes) 	0
attr interpolationmode  none
attr source  dropPkByQueue
attr title  "packets dropped by queue, sum(packetBytes)"
scalar scenarioPRJP1.node[99].wlan[0].mac 	"number of received packets" 	4661
scalar scenarioPRJP1.node[99].wlan[0].mac 	"number of collisions" 	36608
scalar scenarioPRJP1.node[99].wlan[0].mac 	"number of internal collisions" 	0
scalar scenarioPRJP1.node[99].wlan[0].mac 	"number of retry for AC 0" 	7739
scalar scenarioPRJP1.node[99].wlan[0].mac 	"number of retry for AC 1" 	12
scalar scenarioPRJP1.node[99].wlan[0].mac 	"number of retry for AC 2" 	0
scalar scenarioPRJP1.node[99].wlan[0].mac 	"number of retry for AC 3" 	0
scalar scenarioPRJP1.node[99].wlan[0].mac 	"sent and received bits" 	16313760
scalar scenarioPRJP1.node[99].wlan[0].mac 	"sent packet within AC 0" 	956
scalar scenarioPRJP1.node[99].wlan[0].mac 	"sent packet within AC 1" 	1
scalar scenarioPRJP1.node[99].wlan[0].mac 	"sent packet within AC 2" 	0
scalar scenarioPRJP1.node[99].wlan[0].mac 	"sent packet within AC 3" 	0
scalar scenarioPRJP1.node[99].wlan[0].mac 	"sent in TXOP " 	0
scalar scenarioPRJP1.node[99].wlan[0].mac 	"sentWithoutRetry AC 0" 	847
scalar scenarioPRJP1.node[99].wlan[0].mac 	"sentWithoutRetry AC 1" 	1
scalar scenarioPRJP1.node[99].wlan[0].mac 	"sentWithoutRetry AC 2" 	0
scalar scenarioPRJP1.node[99].wlan[0].mac 	"sentWithoutRetry AC 3" 	0
scalar scenarioPRJP1.node[99].wlan[0].mac 	"numGivenUp AC 0" 	1260
scalar scenarioPRJP1.node[99].wlan[0].mac 	"numGivenUp AC 1" 	2
scalar scenarioPRJP1.node[99].wlan[0].mac 	"numGivenUp AC 2" 	0
scalar scenarioPRJP1.node[99].wlan[0].mac 	"numGivenUp AC 3" 	0
scalar scenarioPRJP1.node[99].wlan[0].mac 	"numDropped AC 0" 	0
scalar scenarioPRJP1.node[99].wlan[0].mac 	"numDropped AC 1" 	0
scalar scenarioPRJP1.node[99].wlan[0].mac 	"numDropped AC 2" 	0
scalar scenarioPRJP1.node[99].wlan[0].mac 	"numDropped AC 3" 	0
scalar scenarioPRJP1.node[99].wlan[0].mac 	rcvdPkFromLL:count 	269542
attr interpolationmode  none
attr source  packetReceivedFromLower
attr title  "packets received from lower layer, count"
scalar scenarioPRJP1.node[99].wlan[0].mac 	rcvdPkFromLL:sum(packetBytes) 	37484384
attr interpolationmode  none
attr source  packetReceivedFromLower
attr title  "packets received from lower layer, sum(packetBytes)"
scalar scenarioPRJP1.node[99].wlan[0].mac 	sentDownPk:count 	33192
attr interpolationmode  none
attr source  packetSentToLower
attr title  "packets sent to lower layer, count"
scalar scenarioPRJP1.node[99].wlan[0].mac 	sentDownPk:sum(packetBytes) 	6029802
attr interpolationmode  none
attr source  packetSentToLower
attr title  "packets sent to lower layer, sum(packetBytes)"
scalar scenarioPRJP1.node[99].wlan[0].mac 	rcvdPkFromHL:count 	20780
attr interpolationmode  none
attr source  packetReceivedFromUpper
attr title  "packets received from higher layer, count"
scalar scenarioPRJP1.node[99].wlan[0].mac 	rcvdPkFromHL:sum(packetBytes) 	2588148
attr interpolationmode  none
attr source  packetReceivedFromUpper
attr title  "packets received from higher layer, sum(packetBytes)"
scalar scenarioPRJP1.node[99].wlan[0].mac 	passedUpPk:count 	96368
attr interpolationmode  none
attr source  packetSentToUpper
attr title  "packets passed to higher layer, count"
scalar scenarioPRJP1.node[99].wlan[0].mac 	passedUpPk:sum(packetBytes) 	9053112
attr interpolationmode  none
attr source  packetSentToUpper
attr title  "packets passed to higher layer, sum(packetBytes)"
statistic scenarioPRJP1.node[99].wlan[0].radio 	radioChannel:histogram
field count 1
field mean 3
field stddev -nan
field sum 3
field sqrsum 9
field min 3
field max 3
attr interpolationmode  sample-hold
attr source  radioChannelChanged
attr title  "Radio channel, histogram"
bin	-INF	0
bin	2	0
bin	3	1
bin	4	0
scalar scenarioPRJP1.node[99].wlan[0].radio 	transmissionState:count 	132768
attr interpolationmode  sample-hold
attr source  transmissionStateChanged
attr title  "Radio transmission state, count"
scalar scenarioPRJP1.node[99].wlan[0].radio 	receptionState:count 	611222
attr interpolationmode  sample-hold
attr source  receptionStateChanged
attr title  "Radio reception state, count"
scalar scenarioPRJP1.node[99].wlan[0].radio 	radioMode:count 	66386
attr interpolationmode  sample-hold
attr source  radioModeChanged
attr title  "Radio mode, count"
statistic scenarioPRJP1.node[99].wlan[0].radio 	symbolErrorRate:histogram
field count 0
field mean -nan
field stddev -nan
field sum 0
field sqrsum 0
field min -nan
field max -nan
attr source  symbolErrorRate
attr title  "Symbol error rate, histogram"
bin	-INF	0
bin	-0.5	0
bin	-0.46666666666667	0
bin	-0.43333333333333	0
bin	-0.4	0
bin	-0.36666666666667	0
bin	-0.33333333333333	0
bin	-0.3	0
bin	-0.26666666666667	0
bin	-0.23333333333333	0
bin	-0.2	0
bin	-0.16666666666667	0
bin	-0.13333333333333	0
bin	-0.1	0
bin	-0.066666666666667	0
bin	-0.033333333333333	0
bin	0	0
bin	0.033333333333333	0
bin	0.066666666666667	0
bin	0.1	0
bin	0.13333333333333	0
bin	0.16666666666667	0
bin	0.2	0
bin	0.23333333333333	0
bin	0.26666666666667	0
bin	0.3	0
bin	0.33333333333333	0
bin	0.36666666666667	0
bin	0.4	0
bin	0.43333333333333	0
bin	0.46666666666667	0
bin	0.5	0
statistic scenarioPRJP1.node[99].wlan[0].radio 	bitErrorRate:histogram
field count 0
field mean -nan
field stddev -nan
field sum 0
field sqrsum 0
field min -nan
field max -nan
attr source  bitErrorRate
attr title  "Bit error rate, histogram"
bin	-INF	0
bin	-0.5	0
bin	-0.46666666666667	0
bin	-0.43333333333333	0
bin	-0.4	0
bin	-0.36666666666667	0
bin	-0.33333333333333	0
bin	-0.3	0
bin	-0.26666666666667	0
bin	-0.23333333333333	0
bin	-0.2	0
bin	-0.16666666666667	0
bin	-0.13333333333333	0
bin	-0.1	0
bin	-0.066666666666667	0
bin	-0.033333333333333	0
bin	0	0
bin	0.033333333333333	0
bin	0.066666666666667	0
bin	0.1	0
bin	0.13333333333333	0
bin	0.16666666666667	0
bin	0.2	0
bin	0.23333333333333	0
bin	0.26666666666667	0
bin	0.3	0
bin	0.33333333333333	0
bin	0.36666666666667	0
bin	0.4	0
bin	0.43333333333333	0
bin	0.46666666666667	0
bin	0.5	0
statistic scenarioPRJP1.node[99].wlan[0].radio 	packetErrorRate:histogram
field count 269542
field mean 0.11609519697279
field stddev 0.31151833100181
field sum 31292.531582441
field sqrsum 29790.1606216
field min 0
field max 1
attr source  packetErrorRate
attr title  "Packet error rate, histogram"
bin	-INF	0
bin	-0.5	0
bin	-0.43333333333333	0
bin	-0.36666666666667	0
bin	-0.3	0
bin	-0.23333333333333	0
bin	-0.16666666666667	0
bin	-0.1	0
bin	-0.033333333333333	231879
bin	0.033333333333333	2751
bin	0.1	1231
bin	0.16666666666667	862
bin	0.23333333333333	629
bin	0.3	547
bin	0.36666666666667	469
bin	0.43333333333333	402
bin	0.5	383
bin	0.56666666666667	404
bin	0.63333333333333	367
bin	0.7	410
bin	0.76666666666667	390
bin	0.83333333333333	511
bin	0.9	807
bin	0.96666666666667	27500
bin	1.0333333333333	0
bin	1.1	0
bin	1.1666666666667	0
bin	1.2333333333333	0
bin	1.3	0
bin	1.3666666666667	0
bin	1.4333333333333	0
bin	1.5	0
statistic scenarioPRJP1.node[99].wlan[0].radio 	minSNIR:histogram
field count 269542
field mean 4335.2921418985
field stddev 37946.097024734
field sum 1168543314.5116
field sqrsum 3.9317975510747e+14
field min 0.00016721522597436
field max 6244481.0076224
attr source  minSNIR
attr title  "Min SNIR, histogram"
bin	-INF	0
bin	-1226.527320852	0
bin	-1062.8179639992	0
bin	-899.10860714644	0
bin	-735.39925029366	0
bin	-571.68989344089	0
bin	-407.98053658811	0
bin	-244.27117973534	0
bin	-80.561822882563	154947
bin	83.147533970211	35268
bin	246.85689082299	14896
bin	410.56624767576	9379
bin	574.27560452853	5628
bin	737.98496138131	4804
bin	901.69431823408	3764
bin	1065.4036750869	2371
bin	1229.1130319396	1561
bin	1392.8223887924	1352
bin	1556.5317456452	1290
bin	1720.241102498	1141
bin	1883.9504593507	940
bin	2047.6598162035	878
bin	2211.3691730563	744
bin	2375.0785299091	640
bin	2538.7878867618	580
bin	2702.4972436146	575
bin	2866.2066004674	736
bin	3029.9159573202	563
bin	3193.6253141729	499
bin	3357.3346710257	405
bin	3521.0440278785	364
bin	3684.7533847312	26217
scalar scenarioPRJP1.node[99].lo0.lo 	droppedPkBitError:count 	0
attr interpolationmode  none
attr source  dropPkBitError
attr title  "packets dropped/bit error, count"
scalar scenarioPRJP1.node[99].lo0.lo 	droppedPkBitError:sum(packetBytes) 	0
attr interpolationmode  none
attr source  dropPkBitError
attr title  "packets dropped/bit error, sum(packetBytes)"
scalar scenarioPRJP1.node[99].lo0.lo 	rcvdPkFromHL:count 	0
attr interpolationmode  none
attr source  packetReceivedFromUpper
attr title  "packets received from higher layer, count"
scalar scenarioPRJP1.node[99].lo0.lo 	rcvdPkFromHL:sum(packetBytes) 	0
attr interpolationmode  none
attr source  packetReceivedFromUpper
attr title  "packets received from higher layer, sum(packetBytes)"
scalar scenarioPRJP1.node[99].lo0.lo 	passedUpPk:count 	0
attr interpolationmode  none
attr source  packetSentToUpper
attr title  "packets passed to higher layer, count"
scalar scenarioPRJP1.node[99].lo0.lo 	passedUpPk:sum(packetBytes) 	0
attr interpolationmode  none
attr source  packetSentToUpper
attr title  "packets passed to higher layer, sum(packetBytes)"
