version 2
run AODVRouting-TRG-100n-15-20150730-15:38:28-9991
attr configname AODVRouting-TRG-100n
attr datetime 20150730-15:38:28
attr experiment AODVRouting-TRG-100n
attr inifile omnetpp.ini
attr iterationvars ""
attr iterationvars2 $repetition=15
attr measurement ""
attr network Prj_Part1_propag.scenarioPRJP1
attr processid 9991
attr repetition 15
attr replication #15
attr resultdir results
attr runnumber 15
attr seedset 15

scalar scenarioPRJP1.node[97].app 	"Total sent" 	369
scalar scenarioPRJP1.node[97].app 	"Total received" 	22
scalar scenarioPRJP1.node[97].app 	"Total deleted" 	2
scalar scenarioPRJP1.node[97].app 	dropPk:count 	2
attr interpolationmode  none
attr source  dropPk
attr title  "packets dropped, count"
scalar scenarioPRJP1.node[97].app 	dropPk:sum(packetBytes) 	1024
attr interpolationmode  none
attr source  dropPk
attr title  "packets dropped, sum(packetBytes)"
scalar scenarioPRJP1.node[97].app 	outOfOrderPk:count 	0
attr interpolationmode  none
attr source  outOfOrderPk
attr title  "packets received out of order, count"
scalar scenarioPRJP1.node[97].app 	outOfOrderPk:sum(packetBytes) 	0
attr interpolationmode  none
attr source  outOfOrderPk
attr title  "packets received out of order, sum(packetBytes)"
scalar scenarioPRJP1.node[97].app 	rcvdPk:count 	22
attr interpolationmode  none
attr source  rcvdPk
attr title  "packets received, count"
scalar scenarioPRJP1.node[97].app 	rcvdPk:sum(packetBytes) 	11264
attr interpolationmode  none
attr source  rcvdPk
attr title  "packets received, sum(packetBytes)"
statistic scenarioPRJP1.node[97].app 	endToEndDelay:histogram
field count 22
field mean 0.41432465548064
field stddev 1.859639922571
field sum 9.115142420574
field sqrsum 76.400101717075
field min 0.000945179656
field max 8.739505553493
attr interpolationmode  none
attr source  messageAge(rcvdPk)
attr title  "delay, histogram"
attr unit  s
bin	-INF	0
bin	-4.3683350072625	0
bin	-3.7857643156734	0
bin	-3.2031936240842	0
bin	-2.6206229324951	0
bin	-2.038052240906	0
bin	-1.4554815493168	0
bin	-0.8729108577277	0
bin	-0.29034016613857	21
bin	0.29223052545057	0
bin	0.8748012170397	0
bin	1.4573719086288	0
bin	2.039942600218	0
bin	2.6225132918071	0
bin	3.2050839833962	0
bin	3.7876546749854	0
bin	4.3702253665745	0
bin	4.9527960581636	0
bin	5.5353667497528	0
bin	6.1179374413419	0
bin	6.700508132931	0
bin	7.2830788245202	0
bin	7.8656495161093	0
bin	8.4482202076984	1
bin	9.0307908992876	0
bin	9.6133615908767	0
bin	10.195932282466	0
bin	10.778502974055	0
bin	11.361073665644	0
bin	11.943644357233	0
bin	12.526215048822	0
bin	13.108785740412	0
scalar scenarioPRJP1.node[97].app 	sentPk:count 	369
attr interpolationmode  none
attr source  sentPk
attr title  "packets sent, count"
scalar scenarioPRJP1.node[97].app 	sentPk:sum(packetBytes) 	188928
attr interpolationmode  none
attr source  sentPk
attr title  "packets sent, sum(packetBytes)"
scalar scenarioPRJP1.node[97].udp 	droppedPkBadChecksum:count 	0
attr interpolationmode  none
attr title  "packets dropped (checksum error), count"
scalar scenarioPRJP1.node[97].udp 	droppedPkWrongPort:count 	0
attr interpolationmode  none
attr title  "packets dropped (wrong port), count"
scalar scenarioPRJP1.node[97].udp 	passedUpPk:count 	24
attr interpolationmode  none
attr title  "packets passed up, count"
scalar scenarioPRJP1.node[97].udp 	rcvdPk:count 	24
attr interpolationmode  none
attr source  rcvdPk
attr title  "packets received, count"
scalar scenarioPRJP1.node[97].udp 	rcvdPk:sum(packetBytes) 	12480
attr interpolationmode  none
attr source  rcvdPk
attr title  "packets received, sum(packetBytes)"
scalar scenarioPRJP1.node[97].udp 	sentPk:count 	369
attr interpolationmode  none
attr source  sentPk
attr title  "packets sent, count"
scalar scenarioPRJP1.node[97].udp 	sentPk:sum(packetBytes) 	191880
attr interpolationmode  none
attr source  sentPk
attr title  "packets sent, sum(packetBytes)"
scalar scenarioPRJP1.node[97].networkLayer.arp 	failedARPResolution:count 	0
attr title  "ARP failed resolutions, count"
scalar scenarioPRJP1.node[97].networkLayer.arp 	completedARPResolution:count 	68
attr title  "ARP completed resolutions, count"
scalar scenarioPRJP1.node[97].networkLayer.arp 	initiatedARPResolution:count 	7
attr title  "ARP initiated resolutions, count"
scalar scenarioPRJP1.node[97].networkLayer.arp 	sentReply:count 	11
attr title  "ARP replies sent, count"
scalar scenarioPRJP1.node[97].networkLayer.arp 	sentReq:count 	7
attr title  "ARP request sent, count"
scalar scenarioPRJP1.node[97].mobility 	startTime 	9.8
scalar scenarioPRJP1.node[97].mobility 	totalTime 	149.5
scalar scenarioPRJP1.node[97].mobility 	stopTime 	159.4
scalar scenarioPRJP1.node[97].mobility 	minSpeed 	2.4767324714547e-13
scalar scenarioPRJP1.node[97].mobility 	maxSpeed 	18.881425932464
scalar scenarioPRJP1.node[97].mobility 	totalDistance 	1484.0051752205
scalar scenarioPRJP1.node[97].mobility 	totalCO2Emission 	462.47765630189
scalar scenarioPRJP1.node[97].wlan[0].mgmt 	dataQueueLen:max 	1
attr interpolationmode  sample-hold
attr title  "data queue length, max"
scalar scenarioPRJP1.node[97].wlan[0].mgmt 	dataQueueLen:timeavg 	0
attr interpolationmode  sample-hold
attr title  "data queue length, timeavg"
scalar scenarioPRJP1.node[97].wlan[0].mgmt 	dropPkByQueue:count 	0
attr interpolationmode  none
attr source  dropPkByQueue
attr title  "packets dropped by queue, count"
scalar scenarioPRJP1.node[97].wlan[0].mgmt 	dropPkByQueue:sum(packetBytes) 	0
attr interpolationmode  none
attr source  dropPkByQueue
attr title  "packets dropped by queue, sum(packetBytes)"
scalar scenarioPRJP1.node[97].wlan[0].mac 	"number of received packets" 	442
scalar scenarioPRJP1.node[97].wlan[0].mac 	"number of collisions" 	1307
scalar scenarioPRJP1.node[97].wlan[0].mac 	"number of internal collisions" 	0
scalar scenarioPRJP1.node[97].wlan[0].mac 	"number of retry for AC 0" 	555
scalar scenarioPRJP1.node[97].wlan[0].mac 	"number of retry for AC 1" 	0
scalar scenarioPRJP1.node[97].wlan[0].mac 	"number of retry for AC 2" 	0
scalar scenarioPRJP1.node[97].wlan[0].mac 	"number of retry for AC 3" 	0
scalar scenarioPRJP1.node[97].wlan[0].mac 	"sent and received bits" 	1377920
scalar scenarioPRJP1.node[97].wlan[0].mac 	"sent packet within AC 0" 	40
scalar scenarioPRJP1.node[97].wlan[0].mac 	"sent packet within AC 1" 	0
scalar scenarioPRJP1.node[97].wlan[0].mac 	"sent packet within AC 2" 	0
scalar scenarioPRJP1.node[97].wlan[0].mac 	"sent packet within AC 3" 	0
scalar scenarioPRJP1.node[97].wlan[0].mac 	"sent in TXOP " 	0
scalar scenarioPRJP1.node[97].wlan[0].mac 	"sentWithoutRetry AC 0" 	38
scalar scenarioPRJP1.node[97].wlan[0].mac 	"sentWithoutRetry AC 1" 	0
scalar scenarioPRJP1.node[97].wlan[0].mac 	"sentWithoutRetry AC 2" 	0
scalar scenarioPRJP1.node[97].wlan[0].mac 	"sentWithoutRetry AC 3" 	0
scalar scenarioPRJP1.node[97].wlan[0].mac 	"numGivenUp AC 0" 	92
scalar scenarioPRJP1.node[97].wlan[0].mac 	"numGivenUp AC 1" 	0
scalar scenarioPRJP1.node[97].wlan[0].mac 	"numGivenUp AC 2" 	0
scalar scenarioPRJP1.node[97].wlan[0].mac 	"numGivenUp AC 3" 	0
scalar scenarioPRJP1.node[97].wlan[0].mac 	"numDropped AC 0" 	0
scalar scenarioPRJP1.node[97].wlan[0].mac 	"numDropped AC 1" 	0
scalar scenarioPRJP1.node[97].wlan[0].mac 	"numDropped AC 2" 	0
scalar scenarioPRJP1.node[97].wlan[0].mac 	"numDropped AC 3" 	0
scalar scenarioPRJP1.node[97].wlan[0].mac 	rcvdPkFromLL:count 	15881
attr interpolationmode  none
attr source  packetReceivedFromLower
attr title  "packets received from lower layer, count"
scalar scenarioPRJP1.node[97].wlan[0].mac 	rcvdPkFromLL:sum(packetBytes) 	2196500
attr interpolationmode  none
attr source  packetReceivedFromLower
attr title  "packets received from lower layer, sum(packetBytes)"
scalar scenarioPRJP1.node[97].wlan[0].mac 	sentDownPk:count 	2858
attr interpolationmode  none
attr source  packetSentToLower
attr title  "packets sent to lower layer, count"
scalar scenarioPRJP1.node[97].wlan[0].mac 	sentDownPk:sum(packetBytes) 	446168
attr interpolationmode  none
attr source  packetSentToLower
attr title  "packets sent to lower layer, sum(packetBytes)"
scalar scenarioPRJP1.node[97].wlan[0].mac 	rcvdPkFromHL:count 	1861
attr interpolationmode  none
attr source  packetReceivedFromUpper
attr title  "packets received from higher layer, count"
scalar scenarioPRJP1.node[97].wlan[0].mac 	rcvdPkFromHL:sum(packetBytes) 	210312
attr interpolationmode  none
attr source  packetReceivedFromUpper
attr title  "packets received from higher layer, sum(packetBytes)"
scalar scenarioPRJP1.node[97].wlan[0].mac 	passedUpPk:count 	9953
attr interpolationmode  none
attr source  packetSentToUpper
attr title  "packets passed to higher layer, count"
scalar scenarioPRJP1.node[97].wlan[0].mac 	passedUpPk:sum(packetBytes) 	908992
attr interpolationmode  none
attr source  packetSentToUpper
attr title  "packets passed to higher layer, sum(packetBytes)"
statistic scenarioPRJP1.node[97].wlan[0].radio 	radioChannel:histogram
field count 1
field mean 3
field stddev nan
field sum 3
field sqrsum 9
field min 3
field max 3
attr interpolationmode  sample-hold
attr source  radioChannelChanged
attr title  "Radio channel, histogram"
bin	-INF	0
bin	2	0
bin	3	1
bin	4	0
scalar scenarioPRJP1.node[97].wlan[0].radio 	transmissionState:count 	11432
attr interpolationmode  sample-hold
attr source  transmissionStateChanged
attr title  "Radio transmission state, count"
scalar scenarioPRJP1.node[97].wlan[0].radio 	receptionState:count 	37648
attr interpolationmode  sample-hold
attr source  receptionStateChanged
attr title  "Radio reception state, count"
scalar scenarioPRJP1.node[97].wlan[0].radio 	radioMode:count 	5718
attr interpolationmode  sample-hold
attr source  radioModeChanged
attr title  "Radio mode, count"
statistic scenarioPRJP1.node[97].wlan[0].radio 	symbolErrorRate:histogram
field count 0
field mean nan
field stddev nan
field sum 0
field sqrsum 0
field min nan
field max nan
attr source  symbolErrorRate
attr title  "Symbol error rate, histogram"
bin	-INF	0
bin	-0.5	0
bin	-0.46666666666667	0
bin	-0.43333333333333	0
bin	-0.4	0
bin	-0.36666666666667	0
bin	-0.33333333333333	0
bin	-0.3	0
bin	-0.26666666666667	0
bin	-0.23333333333333	0
bin	-0.2	0
bin	-0.16666666666667	0
bin	-0.13333333333333	0
bin	-0.1	0
bin	-0.066666666666667	0
bin	-0.033333333333333	0
bin	0	0
bin	0.033333333333333	0
bin	0.066666666666667	0
bin	0.1	0
bin	0.13333333333333	0
bin	0.16666666666667	0
bin	0.2	0
bin	0.23333333333333	0
bin	0.26666666666667	0
bin	0.3	0
bin	0.33333333333333	0
bin	0.36666666666667	0
bin	0.4	0
bin	0.43333333333333	0
bin	0.46666666666667	0
bin	0.5	0
statistic scenarioPRJP1.node[97].wlan[0].radio 	bitErrorRate:histogram
field count 0
field mean nan
field stddev nan
field sum 0
field sqrsum 0
field min nan
field max nan
attr source  bitErrorRate
attr title  "Bit error rate, histogram"
bin	-INF	0
bin	-0.5	0
bin	-0.46666666666667	0
bin	-0.43333333333333	0
bin	-0.4	0
bin	-0.36666666666667	0
bin	-0.33333333333333	0
bin	-0.3	0
bin	-0.26666666666667	0
bin	-0.23333333333333	0
bin	-0.2	0
bin	-0.16666666666667	0
bin	-0.13333333333333	0
bin	-0.1	0
bin	-0.066666666666667	0
bin	-0.033333333333333	0
bin	0	0
bin	0.033333333333333	0
bin	0.066666666666667	0
bin	0.1	0
bin	0.13333333333333	0
bin	0.16666666666667	0
bin	0.2	0
bin	0.23333333333333	0
bin	0.26666666666667	0
bin	0.3	0
bin	0.33333333333333	0
bin	0.36666666666667	0
bin	0.4	0
bin	0.43333333333333	0
bin	0.46666666666667	0
bin	0.5	0
statistic scenarioPRJP1.node[97].wlan[0].radio 	packetErrorRate:histogram
field count 15881
field mean 0.0635776692131
field stddev 0.23633793731218
field sum 1009.6769647732
field sqrsum 951.18016341251
field min 0
field max 1
attr source  packetErrorRate
attr title  "Packet error rate, histogram"
bin	-INF	0
bin	-0.0028684823751695	0
bin	-0.0024860180584802	0
bin	-0.002103553741791	0
bin	-0.0017210894251017	0
bin	-0.0013386251084124	0
bin	-0.00095616079172317	0
bin	-0.0005736964750339	0
bin	-0.00019123215834463	14046
bin	0.00019123215834463	116
bin	0.0005736964750339	51
bin	0.00095616079172317	29
bin	0.0013386251084124	26
bin	0.0017210894251017	27
bin	0.002103553741791	19
bin	0.0024860180584802	11
bin	0.0028684823751695	9
bin	0.0032509466918588	8
bin	0.003633411008548	7
bin	0.0040158753252373	7
bin	0.0043983396419266	8
bin	0.0047808039586159	11
bin	0.0051632682753051	6
bin	0.0055457325919944	11
bin	0.0059281969086837	9
bin	0.0063106612253729	6
bin	0.0066931255420622	10
bin	0.0070755898587515	5
bin	0.0074580541754407	1
bin	0.00784051849213	7
bin	0.0082229828088193	11
bin	0.0086054471255085	1440
statistic scenarioPRJP1.node[97].wlan[0].radio 	minSNIR:histogram
field count 15881
field mean 9030.1467252673
field stddev 51959.511093157
field sum 143407760.14397
field sqrsum 44167670909116
field min 0.00071207343184265
field max 753239.71875974
attr source  minSNIR
attr title  "Min SNIR, histogram"
bin	-INF	0
bin	-136.09170957871	0
bin	-117.36151972208	0
bin	-98.631329865459	0
bin	-79.901140008834	0
bin	-61.170950152209	0
bin	-42.440760295584	0
bin	-23.710570438959	0
bin	-4.9803805823343	4905
bin	13.749809274291	1891
bin	32.479999130916	912
bin	51.210188987541	536
bin	69.940378844166	331
bin	88.670568700791	278
bin	107.40075855742	180
bin	126.13094841404	454
bin	144.86113827067	440
bin	163.59132812729	408
bin	182.32151798392	263
bin	201.05170784054	230
bin	219.78189769717	141
bin	238.51208755379	152
bin	257.24227741042	87
bin	275.97246726704	119
bin	294.70265712367	97
bin	313.43284698029	97
bin	332.16303683692	73
bin	350.89322669354	84
bin	369.62341655017	64
bin	388.35360640679	74
bin	407.08379626342	48
bin	425.81398612004	4017
scalar scenarioPRJP1.node[97].lo0.lo 	droppedPkBitError:count 	0
attr interpolationmode  none
attr source  dropPkBitError
attr title  "packets dropped/bit error, count"
scalar scenarioPRJP1.node[97].lo0.lo 	droppedPkBitError:sum(packetBytes) 	0
attr interpolationmode  none
attr source  dropPkBitError
attr title  "packets dropped/bit error, sum(packetBytes)"
scalar scenarioPRJP1.node[97].lo0.lo 	rcvdPkFromHL:count 	0
attr interpolationmode  none
attr source  packetReceivedFromUpper
attr title  "packets received from higher layer, count"
scalar scenarioPRJP1.node[97].lo0.lo 	rcvdPkFromHL:sum(packetBytes) 	0
attr interpolationmode  none
attr source  packetReceivedFromUpper
attr title  "packets received from higher layer, sum(packetBytes)"
scalar scenarioPRJP1.node[97].lo0.lo 	passedUpPk:count 	0
attr interpolationmode  none
attr source  packetSentToUpper
attr title  "packets passed to higher layer, count"
scalar scenarioPRJP1.node[97].lo0.lo 	passedUpPk:sum(packetBytes) 	0
attr interpolationmode  none
attr source  packetSentToUpper
attr title  "packets passed to higher layer, sum(packetBytes)"
scalar scenarioPRJP1.node[52].app 	"Total sent" 	370
scalar scenarioPRJP1.node[52].app 	"Total received" 	29
scalar scenarioPRJP1.node[52].app 	"Total deleted" 	0
scalar scenarioPRJP1.node[52].app 	dropPk:count 	0
attr interpolationmode  none
attr source  dropPk
attr title  "packets dropped, count"
scalar scenarioPRJP1.node[52].app 	dropPk:sum(packetBytes) 	0
attr interpolationmode  none
attr source  dropPk
attr title  "packets dropped, sum(packetBytes)"
scalar scenarioPRJP1.node[52].app 	outOfOrderPk:count 	4
attr interpolationmode  none
attr source  outOfOrderPk
attr title  "packets received out of order, count"
scalar scenarioPRJP1.node[52].app 	outOfOrderPk:sum(packetBytes) 	2048
attr interpolationmode  none
attr source  outOfOrderPk
attr title  "packets received out of order, sum(packetBytes)"
scalar scenarioPRJP1.node[52].app 	rcvdPk:count 	29
attr interpolationmode  none
attr source  rcvdPk
attr title  "packets received, count"
scalar scenarioPRJP1.node[52].app 	rcvdPk:sum(packetBytes) 	14848
attr interpolationmode  none
attr source  rcvdPk
attr title  "packets received, sum(packetBytes)"
statistic scenarioPRJP1.node[52].app 	endToEndDelay:histogram
field count 29
field mean 0.43637316011541
field stddev 1.4267322774772
field sum 12.654821643347
field sqrsum 62.518044275874
field min 0.000953830519
field max 7.425595637696
attr interpolationmode  none
attr source  messageAge(rcvdPk)
attr title  "delay, histogram"
attr unit  s
bin	-INF	0
bin	-3.7113670730695	0
bin	-3.216390952591	0
bin	-2.7214148321126	0
bin	-2.2264387116341	0
bin	-1.7314625911556	0
bin	-1.2364864706772	0
bin	-0.7415103501987	0
bin	-0.24653422972023	23
bin	0.24844189075823	2
bin	0.7434180112367	2
bin	1.2383941317152	0
bin	1.7333702521936	0
bin	2.2283463726721	1
bin	2.7233224931506	0
bin	3.218298613629	0
bin	3.7132747341075	0
bin	4.208250854586	0
bin	4.7032269750644	0
bin	5.1982030955429	0
bin	5.6931792160214	0
bin	6.1881553364998	0
bin	6.6831314569783	0
bin	7.1781075774568	1
bin	7.6730836979352	0
bin	8.1680598184137	0
bin	8.6630359388922	0
bin	9.1580120593706	0
bin	9.6529881798491	0
bin	10.147964300328	0
bin	10.642940420806	0
bin	11.137916541284	0
scalar scenarioPRJP1.node[52].app 	sentPk:count 	370
attr interpolationmode  none
attr source  sentPk
attr title  "packets sent, count"
scalar scenarioPRJP1.node[52].app 	sentPk:sum(packetBytes) 	189440
attr interpolationmode  none
attr source  sentPk
attr title  "packets sent, sum(packetBytes)"
scalar scenarioPRJP1.node[52].udp 	droppedPkBadChecksum:count 	0
attr interpolationmode  none
attr title  "packets dropped (checksum error), count"
scalar scenarioPRJP1.node[52].udp 	droppedPkWrongPort:count 	0
attr interpolationmode  none
attr title  "packets dropped (wrong port), count"
scalar scenarioPRJP1.node[52].udp 	passedUpPk:count 	33
attr interpolationmode  none
attr title  "packets passed up, count"
scalar scenarioPRJP1.node[52].udp 	rcvdPk:count 	33
attr interpolationmode  none
attr source  rcvdPk
attr title  "packets received, count"
scalar scenarioPRJP1.node[52].udp 	rcvdPk:sum(packetBytes) 	17160
attr interpolationmode  none
attr source  rcvdPk
attr title  "packets received, sum(packetBytes)"
scalar scenarioPRJP1.node[52].udp 	sentPk:count 	370
attr interpolationmode  none
attr source  sentPk
attr title  "packets sent, count"
scalar scenarioPRJP1.node[52].udp 	sentPk:sum(packetBytes) 	192400
attr interpolationmode  none
attr source  sentPk
attr title  "packets sent, sum(packetBytes)"
scalar scenarioPRJP1.node[52].networkLayer.arp 	failedARPResolution:count 	4
attr title  "ARP failed resolutions, count"
scalar scenarioPRJP1.node[52].networkLayer.arp 	completedARPResolution:count 	74
attr title  "ARP completed resolutions, count"
scalar scenarioPRJP1.node[52].networkLayer.arp 	initiatedARPResolution:count 	14
attr title  "ARP initiated resolutions, count"
scalar scenarioPRJP1.node[52].networkLayer.arp 	sentReply:count 	9
attr title  "ARP replies sent, count"
scalar scenarioPRJP1.node[52].networkLayer.arp 	sentReq:count 	25
attr title  "ARP request sent, count"
scalar scenarioPRJP1.node[52].mobility 	startTime 	4.9
scalar scenarioPRJP1.node[52].mobility 	totalTime 	154.7
scalar scenarioPRJP1.node[52].mobility 	stopTime 	159.7
scalar scenarioPRJP1.node[52].mobility 	minSpeed 	2.4755699984652e-13
scalar scenarioPRJP1.node[52].mobility 	maxSpeed 	18.414662224728
scalar scenarioPRJP1.node[52].mobility 	totalDistance 	1483.9913076721
scalar scenarioPRJP1.node[52].mobility 	totalCO2Emission 	460.41158106857
scalar scenarioPRJP1.node[52].wlan[0].mgmt 	dataQueueLen:max 	2
attr interpolationmode  sample-hold
attr title  "data queue length, max"
scalar scenarioPRJP1.node[52].wlan[0].mgmt 	dataQueueLen:timeavg 	0
attr interpolationmode  sample-hold
attr title  "data queue length, timeavg"
scalar scenarioPRJP1.node[52].wlan[0].mgmt 	dropPkByQueue:count 	0
attr interpolationmode  none
attr source  dropPkByQueue
attr title  "packets dropped by queue, count"
scalar scenarioPRJP1.node[52].wlan[0].mgmt 	dropPkByQueue:sum(packetBytes) 	0
attr interpolationmode  none
attr source  dropPkByQueue
attr title  "packets dropped by queue, sum(packetBytes)"
scalar scenarioPRJP1.node[52].wlan[0].mac 	"number of received packets" 	247
scalar scenarioPRJP1.node[52].wlan[0].mac 	"number of collisions" 	898
scalar scenarioPRJP1.node[52].wlan[0].mac 	"number of internal collisions" 	0
scalar scenarioPRJP1.node[52].wlan[0].mac 	"number of retry for AC 0" 	252
scalar scenarioPRJP1.node[52].wlan[0].mac 	"number of retry for AC 1" 	0
scalar scenarioPRJP1.node[52].wlan[0].mac 	"number of retry for AC 2" 	0
scalar scenarioPRJP1.node[52].wlan[0].mac 	"number of retry for AC 3" 	0
scalar scenarioPRJP1.node[52].wlan[0].mac 	"sent and received bits" 	1522528
scalar scenarioPRJP1.node[52].wlan[0].mac 	"sent packet within AC 0" 	53
scalar scenarioPRJP1.node[52].wlan[0].mac 	"sent packet within AC 1" 	0
scalar scenarioPRJP1.node[52].wlan[0].mac 	"sent packet within AC 2" 	0
scalar scenarioPRJP1.node[52].wlan[0].mac 	"sent packet within AC 3" 	0
scalar scenarioPRJP1.node[52].wlan[0].mac 	"sent in TXOP " 	0
scalar scenarioPRJP1.node[52].wlan[0].mac 	"sentWithoutRetry AC 0" 	44
scalar scenarioPRJP1.node[52].wlan[0].mac 	"sentWithoutRetry AC 1" 	0
scalar scenarioPRJP1.node[52].wlan[0].mac 	"sentWithoutRetry AC 2" 	0
scalar scenarioPRJP1.node[52].wlan[0].mac 	"sentWithoutRetry AC 3" 	0
scalar scenarioPRJP1.node[52].wlan[0].mac 	"numGivenUp AC 0" 	40
scalar scenarioPRJP1.node[52].wlan[0].mac 	"numGivenUp AC 1" 	0
scalar scenarioPRJP1.node[52].wlan[0].mac 	"numGivenUp AC 2" 	0
scalar scenarioPRJP1.node[52].wlan[0].mac 	"numGivenUp AC 3" 	0
scalar scenarioPRJP1.node[52].wlan[0].mac 	"numDropped AC 0" 	0
scalar scenarioPRJP1.node[52].wlan[0].mac 	"numDropped AC 1" 	0
scalar scenarioPRJP1.node[52].wlan[0].mac 	"numDropped AC 2" 	0
scalar scenarioPRJP1.node[52].wlan[0].mac 	"numDropped AC 3" 	0
scalar scenarioPRJP1.node[52].wlan[0].mac 	rcvdPkFromLL:count 	15393
attr interpolationmode  none
attr source  packetReceivedFromLower
attr title  "packets received from lower layer, count"
scalar scenarioPRJP1.node[52].wlan[0].mac 	rcvdPkFromLL:sum(packetBytes) 	1944992
attr interpolationmode  none
attr source  packetReceivedFromLower
attr title  "packets received from lower layer, sum(packetBytes)"
scalar scenarioPRJP1.node[52].wlan[0].mac 	sentDownPk:count 	2470
attr interpolationmode  none
attr source  packetSentToLower
attr title  "packets sent to lower layer, count"
scalar scenarioPRJP1.node[52].wlan[0].mac 	sentDownPk:sum(packetBytes) 	318182
attr interpolationmode  none
attr source  packetSentToLower
attr title  "packets sent to lower layer, sum(packetBytes)"
scalar scenarioPRJP1.node[52].wlan[0].mac 	rcvdPkFromHL:count 	1971
attr interpolationmode  none
attr source  packetReceivedFromUpper
attr title  "packets received from higher layer, count"
scalar scenarioPRJP1.node[52].wlan[0].mac 	rcvdPkFromHL:sum(packetBytes) 	207312
attr interpolationmode  none
attr source  packetReceivedFromUpper
attr title  "packets received from higher layer, sum(packetBytes)"
scalar scenarioPRJP1.node[52].wlan[0].mac 	passedUpPk:count 	10902
attr interpolationmode  none
attr source  packetSentToUpper
attr title  "packets passed to higher layer, count"
scalar scenarioPRJP1.node[52].wlan[0].mac 	passedUpPk:sum(packetBytes) 	977788
attr interpolationmode  none
attr source  packetSentToUpper
attr title  "packets passed to higher layer, sum(packetBytes)"
statistic scenarioPRJP1.node[52].wlan[0].radio 	radioChannel:histogram
field count 1
field mean 3
field stddev nan
field sum 3
field sqrsum 9
field min 3
field max 3
attr interpolationmode  sample-hold
attr source  radioChannelChanged
attr title  "Radio channel, histogram"
bin	-INF	0
bin	2	0
bin	3	1
bin	4	0
scalar scenarioPRJP1.node[52].wlan[0].radio 	transmissionState:count 	9880
attr interpolationmode  sample-hold
attr source  transmissionStateChanged
attr title  "Radio transmission state, count"
scalar scenarioPRJP1.node[52].wlan[0].radio 	receptionState:count 	36013
attr interpolationmode  sample-hold
attr source  receptionStateChanged
attr title  "Radio reception state, count"
scalar scenarioPRJP1.node[52].wlan[0].radio 	radioMode:count 	4942
attr interpolationmode  sample-hold
attr source  radioModeChanged
attr title  "Radio mode, count"
statistic scenarioPRJP1.node[52].wlan[0].radio 	symbolErrorRate:histogram
field count 0
field mean nan
field stddev nan
field sum 0
field sqrsum 0
field min nan
field max nan
attr source  symbolErrorRate
attr title  "Symbol error rate, histogram"
bin	-INF	0
bin	-0.5	0
bin	-0.46666666666667	0
bin	-0.43333333333333	0
bin	-0.4	0
bin	-0.36666666666667	0
bin	-0.33333333333333	0
bin	-0.3	0
bin	-0.26666666666667	0
bin	-0.23333333333333	0
bin	-0.2	0
bin	-0.16666666666667	0
bin	-0.13333333333333	0
bin	-0.1	0
bin	-0.066666666666667	0
bin	-0.033333333333333	0
bin	0	0
bin	0.033333333333333	0
bin	0.066666666666667	0
bin	0.1	0
bin	0.13333333333333	0
bin	0.16666666666667	0
bin	0.2	0
bin	0.23333333333333	0
bin	0.26666666666667	0
bin	0.3	0
bin	0.33333333333333	0
bin	0.36666666666667	0
bin	0.4	0
bin	0.43333333333333	0
bin	0.46666666666667	0
bin	0.5	0
statistic scenarioPRJP1.node[52].wlan[0].radio 	bitErrorRate:histogram
field count 0
field mean nan
field stddev nan
field sum 0
field sqrsum 0
field min nan
field max nan
attr source  bitErrorRate
attr title  "Bit error rate, histogram"
bin	-INF	0
bin	-0.5	0
bin	-0.46666666666667	0
bin	-0.43333333333333	0
bin	-0.4	0
bin	-0.36666666666667	0
bin	-0.33333333333333	0
bin	-0.3	0
bin	-0.26666666666667	0
bin	-0.23333333333333	0
bin	-0.2	0
bin	-0.16666666666667	0
bin	-0.13333333333333	0
bin	-0.1	0
bin	-0.066666666666667	0
bin	-0.033333333333333	0
bin	0	0
bin	0.033333333333333	0
bin	0.066666666666667	0
bin	0.1	0
bin	0.13333333333333	0
bin	0.16666666666667	0
bin	0.2	0
bin	0.23333333333333	0
bin	0.26666666666667	0
bin	0.3	0
bin	0.33333333333333	0
bin	0.36666666666667	0
bin	0.4	0
bin	0.43333333333333	0
bin	0.46666666666667	0
bin	0.5	0
statistic scenarioPRJP1.node[52].wlan[0].radio 	packetErrorRate:histogram
field count 15393
field mean 0.046310809543037
field stddev 0.20390013905804
field sum 712.86229129598
field sqrsum 672.9397349704
field min 0
field max 1
attr source  packetErrorRate
attr title  "Packet error rate, histogram"
bin	-INF	0
bin	-6.5382971464745e-07	0
bin	-5.6665241936112e-07	0
bin	-4.7947512407479e-07	0
bin	-3.9229782878847e-07	0
bin	-3.0512053350214e-07	0
bin	-2.1794323821582e-07	0
bin	-1.3076594292949e-07	0
bin	-4.3588647643163e-08	13488
bin	4.3588647643163e-08	76
bin	1.3076594292949e-07	35
bin	2.1794323821582e-07	28
bin	3.0512053350214e-07	21
bin	3.9229782878847e-07	11
bin	4.7947512407479e-07	15
bin	5.6665241936112e-07	14
bin	6.5382971464745e-07	6
bin	7.4100700993377e-07	5
bin	8.281843052201e-07	9
bin	9.1536160050643e-07	5
bin	1.0025388957928e-06	8
bin	1.0897161910791e-06	2
bin	1.1768934863654e-06	3
bin	1.2640707816517e-06	6
bin	1.3512480769381e-06	7
bin	1.4384253722244e-06	2
bin	1.5256026675107e-06	4
bin	1.612779962797e-06	2
bin	1.6999572580834e-06	4
bin	1.7871345533697e-06	4
bin	1.874311848656e-06	2
bin	1.9614891439423e-06	1636
statistic scenarioPRJP1.node[52].wlan[0].radio 	minSNIR:histogram
field count 15393
field mean 4725.1522349371
field stddev 41766.938900756
field sum 72734268.352387
field sqrsum 27194673324329
field min 0.00046194866520711
field max 753239.71906384
attr source  minSNIR
attr title  "Min SNIR, histogram"
bin	-INF	0
bin	-76897.645540018	0
bin	-66644.005094286	0
bin	-56390.364648553	0
bin	-46136.724202821	0
bin	-35883.083757089	0
bin	-25629.443311357	0
bin	-15375.802865625	0
bin	-5122.1624198932	14436
bin	5131.4780258389	469
bin	15385.118471571	152
bin	25638.758917303	50
bin	35892.399363035	49
bin	46146.039808767	34
bin	56399.680254499	26
bin	66653.320700231	13
bin	76906.961145963	18
bin	87160.601591695	11
bin	97414.242037427	4
bin	107667.88248316	15
bin	117921.52292889	2
bin	128175.16337462	3
bin	138428.80382036	5
bin	148682.44426609	3
bin	158936.08471182	5
bin	169189.72515755	6
bin	179443.36560328	2
bin	189697.00604902	4
bin	199950.64649475	4
bin	210204.28694048	1
bin	220457.92738621	0
bin	230711.56783194	81
scalar scenarioPRJP1.node[52].lo0.lo 	droppedPkBitError:count 	0
attr interpolationmode  none
attr source  dropPkBitError
attr title  "packets dropped/bit error, count"
scalar scenarioPRJP1.node[52].lo0.lo 	droppedPkBitError:sum(packetBytes) 	0
attr interpolationmode  none
attr source  dropPkBitError
attr title  "packets dropped/bit error, sum(packetBytes)"
scalar scenarioPRJP1.node[52].lo0.lo 	rcvdPkFromHL:count 	0
attr interpolationmode  none
attr source  packetReceivedFromUpper
attr title  "packets received from higher layer, count"
scalar scenarioPRJP1.node[52].lo0.lo 	rcvdPkFromHL:sum(packetBytes) 	0
attr interpolationmode  none
attr source  packetReceivedFromUpper
attr title  "packets received from higher layer, sum(packetBytes)"
scalar scenarioPRJP1.node[52].lo0.lo 	passedUpPk:count 	0
attr interpolationmode  none
attr source  packetSentToUpper
attr title  "packets passed to higher layer, count"
scalar scenarioPRJP1.node[52].lo0.lo 	passedUpPk:sum(packetBytes) 	0
attr interpolationmode  none
attr source  packetSentToUpper
attr title  "packets passed to higher layer, sum(packetBytes)"
scalar scenarioPRJP1.node[57].app 	"Total sent" 	375
scalar scenarioPRJP1.node[57].app 	"Total received" 	28
scalar scenarioPRJP1.node[57].app 	"Total deleted" 	1
scalar scenarioPRJP1.node[57].app 	dropPk:count 	1
attr interpolationmode  none
attr source  dropPk
attr title  "packets dropped, count"
scalar scenarioPRJP1.node[57].app 	dropPk:sum(packetBytes) 	512
attr interpolationmode  none
attr source  dropPk
attr title  "packets dropped, sum(packetBytes)"
scalar scenarioPRJP1.node[57].app 	outOfOrderPk:count 	6
attr interpolationmode  none
attr source  outOfOrderPk
attr title  "packets received out of order, count"
scalar scenarioPRJP1.node[57].app 	outOfOrderPk:sum(packetBytes) 	3072
attr interpolationmode  none
attr source  outOfOrderPk
attr title  "packets received out of order, sum(packetBytes)"
scalar scenarioPRJP1.node[57].app 	rcvdPk:count 	28
attr interpolationmode  none
attr source  rcvdPk
attr title  "packets received, count"
scalar scenarioPRJP1.node[57].app 	rcvdPk:sum(packetBytes) 	14336
attr interpolationmode  none
attr source  rcvdPk
attr title  "packets received, sum(packetBytes)"
statistic scenarioPRJP1.node[57].app 	endToEndDelay:histogram
field count 28
field mean 1.0513328102636
field stddev 3.4286145185955
field sum 29.437318687382
field sqrsum 348.34415194458
field min 0.000958022685
field max 17.72329669874
attr interpolationmode  none
attr source  messageAge(rcvdPk)
attr title  "delay, histogram"
attr unit  s
bin	-INF	0
bin	-8.8602113153425	0
bin	-7.6787220702722	0
bin	-6.4972328252018	0
bin	-5.3157435801315	0
bin	-4.1342543350612	0
bin	-2.9527650899908	0
bin	-1.7712758449205	0
bin	-0.58978659985016	22
bin	0.59170264522017	2
bin	1.7731918902905	1
bin	2.9546811353608	2
bin	4.1361703804312	0
bin	5.3176596255015	0
bin	6.4991488705718	0
bin	7.6806381156422	0
bin	8.8621273607125	0
bin	10.043616605783	0
bin	11.225105850853	0
bin	12.406595095924	0
bin	13.588084340994	0
bin	14.769573586064	0
bin	15.951062831135	0
bin	17.132552076205	1
bin	18.314041321275	0
bin	19.495530566346	0
bin	20.677019811416	0
bin	21.858509056486	0
bin	23.039998301557	0
bin	24.221487546627	0
bin	25.402976791697	0
bin	26.584466036768	0
scalar scenarioPRJP1.node[57].app 	sentPk:count 	375
attr interpolationmode  none
attr source  sentPk
attr title  "packets sent, count"
scalar scenarioPRJP1.node[57].app 	sentPk:sum(packetBytes) 	192000
attr interpolationmode  none
attr source  sentPk
attr title  "packets sent, sum(packetBytes)"
scalar scenarioPRJP1.node[57].udp 	droppedPkBadChecksum:count 	0
attr interpolationmode  none
attr title  "packets dropped (checksum error), count"
scalar scenarioPRJP1.node[57].udp 	droppedPkWrongPort:count 	0
attr interpolationmode  none
attr title  "packets dropped (wrong port), count"
scalar scenarioPRJP1.node[57].udp 	passedUpPk:count 	35
attr interpolationmode  none
attr title  "packets passed up, count"
scalar scenarioPRJP1.node[57].udp 	rcvdPk:count 	35
attr interpolationmode  none
attr source  rcvdPk
attr title  "packets received, count"
scalar scenarioPRJP1.node[57].udp 	rcvdPk:sum(packetBytes) 	18200
attr interpolationmode  none
attr source  rcvdPk
attr title  "packets received, sum(packetBytes)"
scalar scenarioPRJP1.node[57].udp 	sentPk:count 	375
attr interpolationmode  none
attr source  sentPk
attr title  "packets sent, count"
scalar scenarioPRJP1.node[57].udp 	sentPk:sum(packetBytes) 	195000
attr interpolationmode  none
attr source  sentPk
attr title  "packets sent, sum(packetBytes)"
scalar scenarioPRJP1.node[57].networkLayer.arp 	failedARPResolution:count 	4
attr title  "ARP failed resolutions, count"
scalar scenarioPRJP1.node[57].networkLayer.arp 	completedARPResolution:count 	88
attr title  "ARP completed resolutions, count"
scalar scenarioPRJP1.node[57].networkLayer.arp 	initiatedARPResolution:count 	17
attr title  "ARP initiated resolutions, count"
scalar scenarioPRJP1.node[57].networkLayer.arp 	sentReply:count 	8
attr title  "ARP replies sent, count"
scalar scenarioPRJP1.node[57].networkLayer.arp 	sentReq:count 	29
attr title  "ARP request sent, count"
scalar scenarioPRJP1.node[57].mobility 	startTime 	4.9
scalar scenarioPRJP1.node[57].mobility 	totalTime 	156
scalar scenarioPRJP1.node[57].mobility 	stopTime 	161
scalar scenarioPRJP1.node[57].mobility 	minSpeed 	2.4764171528591e-13
scalar scenarioPRJP1.node[57].mobility 	maxSpeed 	18.140702321828
scalar scenarioPRJP1.node[57].mobility 	totalDistance 	1452.6231536652
scalar scenarioPRJP1.node[57].mobility 	totalCO2Emission 	404.69993647794
scalar scenarioPRJP1.node[57].wlan[0].mgmt 	dataQueueLen:max 	1
attr interpolationmode  sample-hold
attr title  "data queue length, max"
scalar scenarioPRJP1.node[57].wlan[0].mgmt 	dataQueueLen:timeavg 	0
attr interpolationmode  sample-hold
attr title  "data queue length, timeavg"
scalar scenarioPRJP1.node[57].wlan[0].mgmt 	dropPkByQueue:count 	0
attr interpolationmode  none
attr source  dropPkByQueue
attr title  "packets dropped by queue, count"
scalar scenarioPRJP1.node[57].wlan[0].mgmt 	dropPkByQueue:sum(packetBytes) 	0
attr interpolationmode  none
attr source  dropPkByQueue
attr title  "packets dropped by queue, sum(packetBytes)"
scalar scenarioPRJP1.node[57].wlan[0].mac 	"number of received packets" 	303
scalar scenarioPRJP1.node[57].wlan[0].mac 	"number of collisions" 	1489
scalar scenarioPRJP1.node[57].wlan[0].mac 	"number of internal collisions" 	0
scalar scenarioPRJP1.node[57].wlan[0].mac 	"number of retry for AC 0" 	255
scalar scenarioPRJP1.node[57].wlan[0].mac 	"number of retry for AC 1" 	0
scalar scenarioPRJP1.node[57].wlan[0].mac 	"number of retry for AC 2" 	0
scalar scenarioPRJP1.node[57].wlan[0].mac 	"number of retry for AC 3" 	0
scalar scenarioPRJP1.node[57].wlan[0].mac 	"sent and received bits" 	1660864
scalar scenarioPRJP1.node[57].wlan[0].mac 	"sent packet within AC 0" 	33
scalar scenarioPRJP1.node[57].wlan[0].mac 	"sent packet within AC 1" 	0
scalar scenarioPRJP1.node[57].wlan[0].mac 	"sent packet within AC 2" 	0
scalar scenarioPRJP1.node[57].wlan[0].mac 	"sent packet within AC 3" 	0
scalar scenarioPRJP1.node[57].wlan[0].mac 	"sent in TXOP " 	0
scalar scenarioPRJP1.node[57].wlan[0].mac 	"sentWithoutRetry AC 0" 	30
scalar scenarioPRJP1.node[57].wlan[0].mac 	"sentWithoutRetry AC 1" 	0
scalar scenarioPRJP1.node[57].wlan[0].mac 	"sentWithoutRetry AC 2" 	0
scalar scenarioPRJP1.node[57].wlan[0].mac 	"sentWithoutRetry AC 3" 	0
scalar scenarioPRJP1.node[57].wlan[0].mac 	"numGivenUp AC 0" 	42
scalar scenarioPRJP1.node[57].wlan[0].mac 	"numGivenUp AC 1" 	0
scalar scenarioPRJP1.node[57].wlan[0].mac 	"numGivenUp AC 2" 	0
scalar scenarioPRJP1.node[57].wlan[0].mac 	"numGivenUp AC 3" 	0
scalar scenarioPRJP1.node[57].wlan[0].mac 	"numDropped AC 0" 	0
scalar scenarioPRJP1.node[57].wlan[0].mac 	"numDropped AC 1" 	0
scalar scenarioPRJP1.node[57].wlan[0].mac 	"numDropped AC 2" 	0
scalar scenarioPRJP1.node[57].wlan[0].mac 	"numDropped AC 3" 	0
scalar scenarioPRJP1.node[57].wlan[0].mac 	rcvdPkFromLL:count 	19989
attr interpolationmode  none
attr source  packetReceivedFromLower
attr title  "packets received from lower layer, count"
scalar scenarioPRJP1.node[57].wlan[0].mac 	rcvdPkFromLL:sum(packetBytes) 	2640382
attr interpolationmode  none
attr source  packetReceivedFromLower
attr title  "packets received from lower layer, sum(packetBytes)"
scalar scenarioPRJP1.node[57].wlan[0].mac 	sentDownPk:count 	2862
attr interpolationmode  none
attr source  packetSentToLower
attr title  "packets sent to lower layer, count"
scalar scenarioPRJP1.node[57].wlan[0].mac 	sentDownPk:sum(packetBytes) 	301254
attr interpolationmode  none
attr source  packetSentToLower
attr title  "packets sent to lower layer, sum(packetBytes)"
scalar scenarioPRJP1.node[57].wlan[0].mac 	rcvdPkFromHL:count 	2304
attr interpolationmode  none
attr source  packetReceivedFromUpper
attr title  "packets received from higher layer, count"
scalar scenarioPRJP1.node[57].wlan[0].mac 	rcvdPkFromHL:sum(packetBytes) 	220344
attr interpolationmode  none
attr source  packetReceivedFromUpper
attr title  "packets received from higher layer, sum(packetBytes)"
scalar scenarioPRJP1.node[57].wlan[0].mac 	passedUpPk:count 	13095
attr interpolationmode  none
attr source  packetSentToUpper
attr title  "packets passed to higher layer, count"
scalar scenarioPRJP1.node[57].wlan[0].mac 	passedUpPk:sum(packetBytes) 	1175468
attr interpolationmode  none
attr source  packetSentToUpper
attr title  "packets passed to higher layer, sum(packetBytes)"
statistic scenarioPRJP1.node[57].wlan[0].radio 	radioChannel:histogram
field count 1
field mean 3
field stddev nan
field sum 3
field sqrsum 9
field min 3
field max 3
attr interpolationmode  sample-hold
attr source  radioChannelChanged
attr title  "Radio channel, histogram"
bin	-INF	0
bin	2	0
bin	3	1
bin	4	0
scalar scenarioPRJP1.node[57].wlan[0].radio 	transmissionState:count 	11448
attr interpolationmode  sample-hold
attr source  transmissionStateChanged
attr title  "Radio transmission state, count"
scalar scenarioPRJP1.node[57].wlan[0].radio 	receptionState:count 	46001
attr interpolationmode  sample-hold
attr source  receptionStateChanged
attr title  "Radio reception state, count"
scalar scenarioPRJP1.node[57].wlan[0].radio 	radioMode:count 	5726
attr interpolationmode  sample-hold
attr source  radioModeChanged
attr title  "Radio mode, count"
statistic scenarioPRJP1.node[57].wlan[0].radio 	symbolErrorRate:histogram
field count 0
field mean nan
field stddev nan
field sum 0
field sqrsum 0
field min nan
field max nan
attr source  symbolErrorRate
attr title  "Symbol error rate, histogram"
bin	-INF	0
bin	-0.5	0
bin	-0.46666666666667	0
bin	-0.43333333333333	0
bin	-0.4	0
bin	-0.36666666666667	0
bin	-0.33333333333333	0
bin	-0.3	0
bin	-0.26666666666667	0
bin	-0.23333333333333	0
bin	-0.2	0
bin	-0.16666666666667	0
bin	-0.13333333333333	0
bin	-0.1	0
bin	-0.066666666666667	0
bin	-0.033333333333333	0
bin	0	0
bin	0.033333333333333	0
bin	0.066666666666667	0
bin	0.1	0
bin	0.13333333333333	0
bin	0.16666666666667	0
bin	0.2	0
bin	0.23333333333333	0
bin	0.26666666666667	0
bin	0.3	0
bin	0.33333333333333	0
bin	0.36666666666667	0
bin	0.4	0
bin	0.43333333333333	0
bin	0.46666666666667	0
bin	0.5	0
statistic scenarioPRJP1.node[57].wlan[0].radio 	bitErrorRate:histogram
field count 0
field mean nan
field stddev nan
field sum 0
field sqrsum 0
field min nan
field max nan
attr source  bitErrorRate
attr title  "Bit error rate, histogram"
bin	-INF	0
bin	-0.5	0
bin	-0.46666666666667	0
bin	-0.43333333333333	0
bin	-0.4	0
bin	-0.36666666666667	0
bin	-0.33333333333333	0
bin	-0.3	0
bin	-0.26666666666667	0
bin	-0.23333333333333	0
bin	-0.2	0
bin	-0.16666666666667	0
bin	-0.13333333333333	0
bin	-0.1	0
bin	-0.066666666666667	0
bin	-0.033333333333333	0
bin	0	0
bin	0.033333333333333	0
bin	0.066666666666667	0
bin	0.1	0
bin	0.13333333333333	0
bin	0.16666666666667	0
bin	0.2	0
bin	0.23333333333333	0
bin	0.26666666666667	0
bin	0.3	0
bin	0.33333333333333	0
bin	0.36666666666667	0
bin	0.4	0
bin	0.43333333333333	0
bin	0.46666666666667	0
bin	0.5	0
statistic scenarioPRJP1.node[57].wlan[0].radio 	packetErrorRate:histogram
field count 19989
field mean 0.060512827699012
field stddev 0.23153706676435
field sum 1209.5909128756
field sqrsum 1144.7407192545
field min 0
field max 1
attr source  packetErrorRate
attr title  "Packet error rate, histogram"
bin	-INF	0
bin	-0.0017371707534362	0
bin	-0.0015055479863114	0
bin	-0.0012739252191866	0
bin	-0.0010423024520617	0
bin	-0.0008106796849369	0
bin	-0.00057905691781207	0
bin	-0.00034743415068724	0
bin	-0.00011581138356241	17873
bin	0.00011581138356241	113
bin	0.00034743415068724	58
bin	0.00057905691781207	38
bin	0.0008106796849369	29
bin	0.0010423024520617	28
bin	0.0012739252191866	20
bin	0.0015055479863114	20
bin	0.0017371707534362	9
bin	0.001968793520561	12
bin	0.0022004162876859	12
bin	0.0024320390548107	13
bin	0.0026636618219355	8
bin	0.0028952845890604	6
bin	0.0031269073561852	11
bin	0.00335853012331	11
bin	0.0035901528904348	10
bin	0.0038217756575597	7
bin	0.0040533984246845	3
bin	0.0042850211918093	2
bin	0.0045166439589342	3
bin	0.004748266726059	10
bin	0.0049798894931838	4
bin	0.0052115122603086	1689
statistic scenarioPRJP1.node[57].wlan[0].radio 	minSNIR:histogram
field count 19989
field mean 11426.471377192
field stddev 64603.666335251
field sum 228403736.35868
field sqrsum 86032439230628
field min 0.0018698452146545
field max 753239.71923443
attr source  minSNIR
attr title  "Min SNIR, histogram"
bin	-INF	0
bin	-160.87137674901	0
bin	-139.07691212231	0
bin	-117.28244749561	0
bin	-95.487982868914	0
bin	-73.693518242216	0
bin	-51.899053615519	0
bin	-30.104588988821	0
bin	-8.3101243621234	4835
bin	13.484340264574	2068
bin	35.278804891272	1046
bin	57.07326951797	658
bin	78.867734144667	484
bin	100.66219877136	377
bin	122.45666339806	570
bin	144.25112802476	524
bin	166.04559265146	442
bin	187.84005727816	328
bin	209.63452190485	353
bin	231.42898653155	289
bin	253.22345115825	210
bin	275.01791578495	186
bin	296.81238041164	168
bin	318.60684503834	222
bin	340.40130966504	134
bin	362.19577429174	118
bin	383.99023891843	102
bin	405.78470354513	111
bin	427.57916817183	64
bin	449.37363279853	72
bin	471.16809742522	73
bin	492.96256205192	6555
scalar scenarioPRJP1.node[57].lo0.lo 	droppedPkBitError:count 	0
attr interpolationmode  none
attr source  dropPkBitError
attr title  "packets dropped/bit error, count"
scalar scenarioPRJP1.node[57].lo0.lo 	droppedPkBitError:sum(packetBytes) 	0
attr interpolationmode  none
attr source  dropPkBitError
attr title  "packets dropped/bit error, sum(packetBytes)"
scalar scenarioPRJP1.node[57].lo0.lo 	rcvdPkFromHL:count 	0
attr interpolationmode  none
attr source  packetReceivedFromUpper
attr title  "packets received from higher layer, count"
scalar scenarioPRJP1.node[57].lo0.lo 	rcvdPkFromHL:sum(packetBytes) 	0
attr interpolationmode  none
attr source  packetReceivedFromUpper
attr title  "packets received from higher layer, sum(packetBytes)"
scalar scenarioPRJP1.node[57].lo0.lo 	passedUpPk:count 	0
attr interpolationmode  none
attr source  packetSentToUpper
attr title  "packets passed to higher layer, count"
scalar scenarioPRJP1.node[57].lo0.lo 	passedUpPk:sum(packetBytes) 	0
attr interpolationmode  none
attr source  packetSentToUpper
attr title  "packets passed to higher layer, sum(packetBytes)"
scalar scenarioPRJP1.node[63].app 	"Total sent" 	380
scalar scenarioPRJP1.node[63].app 	"Total received" 	20
scalar scenarioPRJP1.node[63].app 	"Total deleted" 	0
scalar scenarioPRJP1.node[63].app 	dropPk:count 	0
attr interpolationmode  none
attr source  dropPk
attr title  "packets dropped, count"
scalar scenarioPRJP1.node[63].app 	dropPk:sum(packetBytes) 	0
attr interpolationmode  none
attr source  dropPk
attr title  "packets dropped, sum(packetBytes)"
scalar scenarioPRJP1.node[63].app 	outOfOrderPk:count 	0
attr interpolationmode  none
attr source  outOfOrderPk
attr title  "packets received out of order, count"
scalar scenarioPRJP1.node[63].app 	outOfOrderPk:sum(packetBytes) 	0
attr interpolationmode  none
attr source  outOfOrderPk
attr title  "packets received out of order, sum(packetBytes)"
scalar scenarioPRJP1.node[63].app 	rcvdPk:count 	20
attr interpolationmode  none
attr source  rcvdPk
attr title  "packets received, count"
scalar scenarioPRJP1.node[63].app 	rcvdPk:sum(packetBytes) 	10240
attr interpolationmode  none
attr source  rcvdPk
attr title  "packets received, sum(packetBytes)"
statistic scenarioPRJP1.node[63].app 	endToEndDelay:histogram
field count 20
field mean 0.60288908052045
field stddev 1.9442703064508
field sum 12.057781610409
field sqrsum 79.093058334592
field min 0.000945103957
field max 8.679938138135
attr interpolationmode  none
attr source  messageAge(rcvdPk)
attr title  "delay, histogram"
attr unit  s
bin	-INF	0
bin	-4.338551413132	0
bin	-3.7599518775201	0
bin	-3.1813523419083	0
bin	-2.6027528062964	0
bin	-2.0241532706845	0
bin	-1.4455537350727	0
bin	-0.8669541994608	0
bin	-0.28835466384893	15
bin	0.29024487176293	2
bin	0.8688444073748	1
bin	1.4474439429867	1
bin	2.0260434785985	0
bin	2.6046430142104	0
bin	3.1832425498223	0
bin	3.7618420854341	0
bin	4.340441621046	0
bin	4.9190411566579	0
bin	5.4976406922697	0
bin	6.0762402278816	0
bin	6.6548397634935	0
bin	7.2334392991053	0
bin	7.8120388347172	0
bin	8.3906383703291	1
bin	8.9692379059409	0
bin	9.5478374415528	0
bin	10.126436977165	0
bin	10.705036512777	0
bin	11.283636048388	0
bin	11.862235584	0
bin	12.440835119612	0
bin	13.019434655224	0
scalar scenarioPRJP1.node[63].app 	sentPk:count 	380
attr interpolationmode  none
attr source  sentPk
attr title  "packets sent, count"
scalar scenarioPRJP1.node[63].app 	sentPk:sum(packetBytes) 	194560
attr interpolationmode  none
attr source  sentPk
attr title  "packets sent, sum(packetBytes)"
scalar scenarioPRJP1.node[63].udp 	droppedPkBadChecksum:count 	0
attr interpolationmode  none
attr title  "packets dropped (checksum error), count"
scalar scenarioPRJP1.node[63].udp 	droppedPkWrongPort:count 	0
attr interpolationmode  none
attr title  "packets dropped (wrong port), count"
scalar scenarioPRJP1.node[63].udp 	passedUpPk:count 	20
attr interpolationmode  none
attr title  "packets passed up, count"
scalar scenarioPRJP1.node[63].udp 	rcvdPk:count 	20
attr interpolationmode  none
attr source  rcvdPk
attr title  "packets received, count"
scalar scenarioPRJP1.node[63].udp 	rcvdPk:sum(packetBytes) 	10400
attr interpolationmode  none
attr source  rcvdPk
attr title  "packets received, sum(packetBytes)"
scalar scenarioPRJP1.node[63].udp 	sentPk:count 	380
attr interpolationmode  none
attr source  sentPk
attr title  "packets sent, count"
scalar scenarioPRJP1.node[63].udp 	sentPk:sum(packetBytes) 	197600
attr interpolationmode  none
attr source  sentPk
attr title  "packets sent, sum(packetBytes)"
scalar scenarioPRJP1.node[63].networkLayer.arp 	failedARPResolution:count 	1
attr title  "ARP failed resolutions, count"
scalar scenarioPRJP1.node[63].networkLayer.arp 	completedARPResolution:count 	107
attr title  "ARP completed resolutions, count"
scalar scenarioPRJP1.node[63].networkLayer.arp 	initiatedARPResolution:count 	13
attr title  "ARP initiated resolutions, count"
scalar scenarioPRJP1.node[63].networkLayer.arp 	sentReply:count 	11
attr title  "ARP replies sent, count"
scalar scenarioPRJP1.node[63].networkLayer.arp 	sentReq:count 	18
attr title  "ARP request sent, count"
scalar scenarioPRJP1.node[63].mobility 	startTime 	7.3
scalar scenarioPRJP1.node[63].mobility 	totalTime 	156
scalar scenarioPRJP1.node[63].mobility 	stopTime 	163.4
scalar scenarioPRJP1.node[63].mobility 	minSpeed 	2.4759248897263e-13
scalar scenarioPRJP1.node[63].mobility 	maxSpeed 	15.234154900277
scalar scenarioPRJP1.node[63].mobility 	totalDistance 	1485.0593406702
scalar scenarioPRJP1.node[63].mobility 	totalCO2Emission 	405.81401601286
scalar scenarioPRJP1.node[63].wlan[0].mgmt 	dataQueueLen:max 	0
attr interpolationmode  sample-hold
attr title  "data queue length, max"
scalar scenarioPRJP1.node[63].wlan[0].mgmt 	dataQueueLen:timeavg 	0
attr interpolationmode  sample-hold
attr title  "data queue length, timeavg"
scalar scenarioPRJP1.node[63].wlan[0].mgmt 	dropPkByQueue:count 	0
attr interpolationmode  none
attr source  dropPkByQueue
attr title  "packets dropped by queue, count"
scalar scenarioPRJP1.node[63].wlan[0].mgmt 	dropPkByQueue:sum(packetBytes) 	0
attr interpolationmode  none
attr source  dropPkByQueue
attr title  "packets dropped by queue, sum(packetBytes)"
scalar scenarioPRJP1.node[63].wlan[0].mac 	"number of received packets" 	261
scalar scenarioPRJP1.node[63].wlan[0].mac 	"number of collisions" 	1359
scalar scenarioPRJP1.node[63].wlan[0].mac 	"number of internal collisions" 	0
scalar scenarioPRJP1.node[63].wlan[0].mac 	"number of retry for AC 0" 	406
scalar scenarioPRJP1.node[63].wlan[0].mac 	"number of retry for AC 1" 	0
scalar scenarioPRJP1.node[63].wlan[0].mac 	"number of retry for AC 2" 	0
scalar scenarioPRJP1.node[63].wlan[0].mac 	"number of retry for AC 3" 	0
scalar scenarioPRJP1.node[63].wlan[0].mac 	"sent and received bits" 	1716704
scalar scenarioPRJP1.node[63].wlan[0].mac 	"sent packet within AC 0" 	49
scalar scenarioPRJP1.node[63].wlan[0].mac 	"sent packet within AC 1" 	0
scalar scenarioPRJP1.node[63].wlan[0].mac 	"sent packet within AC 2" 	0
scalar scenarioPRJP1.node[63].wlan[0].mac 	"sent packet within AC 3" 	0
scalar scenarioPRJP1.node[63].wlan[0].mac 	"sent in TXOP " 	0
scalar scenarioPRJP1.node[63].wlan[0].mac 	"sentWithoutRetry AC 0" 	40
scalar scenarioPRJP1.node[63].wlan[0].mac 	"sentWithoutRetry AC 1" 	0
scalar scenarioPRJP1.node[63].wlan[0].mac 	"sentWithoutRetry AC 2" 	0
scalar scenarioPRJP1.node[63].wlan[0].mac 	"sentWithoutRetry AC 3" 	0
scalar scenarioPRJP1.node[63].wlan[0].mac 	"numGivenUp AC 0" 	65
scalar scenarioPRJP1.node[63].wlan[0].mac 	"numGivenUp AC 1" 	0
scalar scenarioPRJP1.node[63].wlan[0].mac 	"numGivenUp AC 2" 	0
scalar scenarioPRJP1.node[63].wlan[0].mac 	"numGivenUp AC 3" 	0
scalar scenarioPRJP1.node[63].wlan[0].mac 	"numDropped AC 0" 	0
scalar scenarioPRJP1.node[63].wlan[0].mac 	"numDropped AC 1" 	0
scalar scenarioPRJP1.node[63].wlan[0].mac 	"numDropped AC 2" 	0
scalar scenarioPRJP1.node[63].wlan[0].mac 	"numDropped AC 3" 	0
scalar scenarioPRJP1.node[63].wlan[0].mac 	rcvdPkFromLL:count 	21955
attr interpolationmode  none
attr source  packetReceivedFromLower
attr title  "packets received from lower layer, count"
scalar scenarioPRJP1.node[63].wlan[0].mac 	rcvdPkFromLL:sum(packetBytes) 	2374282
attr interpolationmode  none
attr source  packetReceivedFromLower
attr title  "packets received from lower layer, sum(packetBytes)"
scalar scenarioPRJP1.node[63].wlan[0].mac 	sentDownPk:count 	3010
attr interpolationmode  none
attr source  packetSentToLower
attr title  "packets sent to lower layer, count"
scalar scenarioPRJP1.node[63].wlan[0].mac 	sentDownPk:sum(packetBytes) 	406162
attr interpolationmode  none
attr source  packetSentToLower
attr title  "packets sent to lower layer, sum(packetBytes)"
scalar scenarioPRJP1.node[63].wlan[0].mac 	rcvdPkFromHL:count 	2343
attr interpolationmode  none
attr source  packetReceivedFromUpper
attr title  "packets received from higher layer, count"
scalar scenarioPRJP1.node[63].wlan[0].mac 	rcvdPkFromHL:sum(packetBytes) 	240612
attr interpolationmode  none
attr source  packetReceivedFromUpper
attr title  "packets received from higher layer, sum(packetBytes)"
scalar scenarioPRJP1.node[63].wlan[0].mac 	passedUpPk:count 	10405
attr interpolationmode  none
attr source  packetSentToUpper
attr title  "packets passed to higher layer, count"
scalar scenarioPRJP1.node[63].wlan[0].mac 	passedUpPk:sum(packetBytes) 	940992
attr interpolationmode  none
attr source  packetSentToUpper
attr title  "packets passed to higher layer, sum(packetBytes)"
statistic scenarioPRJP1.node[63].wlan[0].radio 	radioChannel:histogram
field count 1
field mean 3
field stddev nan
field sum 3
field sqrsum 9
field min 3
field max 3
attr interpolationmode  sample-hold
attr source  radioChannelChanged
attr title  "Radio channel, histogram"
bin	-INF	0
bin	2	0
bin	3	1
bin	4	0
scalar scenarioPRJP1.node[63].wlan[0].radio 	transmissionState:count 	12040
attr interpolationmode  sample-hold
attr source  transmissionStateChanged
attr title  "Radio transmission state, count"
scalar scenarioPRJP1.node[63].wlan[0].radio 	receptionState:count 	50197
attr interpolationmode  sample-hold
attr source  receptionStateChanged
attr title  "Radio reception state, count"
scalar scenarioPRJP1.node[63].wlan[0].radio 	radioMode:count 	6022
attr interpolationmode  sample-hold
attr source  radioModeChanged
attr title  "Radio mode, count"
statistic scenarioPRJP1.node[63].wlan[0].radio 	symbolErrorRate:histogram
field count 0
field mean nan
field stddev nan
field sum 0
field sqrsum 0
field min nan
field max nan
attr source  symbolErrorRate
attr title  "Symbol error rate, histogram"
bin	-INF	0
bin	-0.5	0
bin	-0.46666666666667	0
bin	-0.43333333333333	0
bin	-0.4	0
bin	-0.36666666666667	0
bin	-0.33333333333333	0
bin	-0.3	0
bin	-0.26666666666667	0
bin	-0.23333333333333	0
bin	-0.2	0
bin	-0.16666666666667	0
bin	-0.13333333333333	0
bin	-0.1	0
bin	-0.066666666666667	0
bin	-0.033333333333333	0
bin	0	0
bin	0.033333333333333	0
bin	0.066666666666667	0
bin	0.1	0
bin	0.13333333333333	0
bin	0.16666666666667	0
bin	0.2	0
bin	0.23333333333333	0
bin	0.26666666666667	0
bin	0.3	0
bin	0.33333333333333	0
bin	0.36666666666667	0
bin	0.4	0
bin	0.43333333333333	0
bin	0.46666666666667	0
bin	0.5	0
statistic scenarioPRJP1.node[63].wlan[0].radio 	bitErrorRate:histogram
field count 0
field mean nan
field stddev nan
field sum 0
field sqrsum 0
field min nan
field max nan
attr source  bitErrorRate
attr title  "Bit error rate, histogram"
bin	-INF	0
bin	-0.5	0
bin	-0.46666666666667	0
bin	-0.43333333333333	0
bin	-0.4	0
bin	-0.36666666666667	0
bin	-0.33333333333333	0
bin	-0.3	0
bin	-0.26666666666667	0
bin	-0.23333333333333	0
bin	-0.2	0
bin	-0.16666666666667	0
bin	-0.13333333333333	0
bin	-0.1	0
bin	-0.066666666666667	0
bin	-0.033333333333333	0
bin	0	0
bin	0.033333333333333	0
bin	0.066666666666667	0
bin	0.1	0
bin	0.13333333333333	0
bin	0.16666666666667	0
bin	0.2	0
bin	0.23333333333333	0
bin	0.26666666666667	0
bin	0.3	0
bin	0.33333333333333	0
bin	0.36666666666667	0
bin	0.4	0
bin	0.43333333333333	0
bin	0.46666666666667	0
bin	0.5	0
statistic scenarioPRJP1.node[63].wlan[0].radio 	packetErrorRate:histogram
field count 21955
field mean 0.047415510086559
field stddev 0.20606743544989
field sum 1041.0075239504
field sqrsum 981.60990346991
field min 0
field max 1
attr source  packetErrorRate
attr title  "Packet error rate, histogram"
bin	-INF	0
bin	-0.5	0
bin	-0.43333333333333	0
bin	-0.36666666666667	0
bin	-0.3	0
bin	-0.23333333333333	0
bin	-0.16666666666667	0
bin	-0.1	0
bin	-0.033333333333333	20645
bin	0.033333333333333	126
bin	0.1	56
bin	0.16666666666667	30
bin	0.23333333333333	24
bin	0.3	26
bin	0.36666666666667	18
bin	0.43333333333333	9
bin	0.5	18
bin	0.56666666666667	14
bin	0.63333333333333	15
bin	0.7	15
bin	0.76666666666667	19
bin	0.83333333333333	17
bin	0.9	21
bin	0.96666666666667	902
bin	1.0333333333333	0
bin	1.1	0
bin	1.1666666666667	0
bin	1.2333333333333	0
bin	1.3	0
bin	1.3666666666667	0
bin	1.4333333333333	0
bin	1.5	0
statistic scenarioPRJP1.node[63].wlan[0].radio 	minSNIR:histogram
field count 21955
field mean 3525.0232840966
field stddev 31372.849975067
field sum 77391886.20234
field sqrsum 21881158180225
field min 0.00037210664597726
field max 753239.71881372
attr source  minSNIR
attr title  "Min SNIR, histogram"
bin	-INF	0
bin	-64409.227566879	0
bin	-55821.091676992	0
bin	-47232.955787105	0
bin	-38644.819897217	0
bin	-30056.68400733	0
bin	-21468.548117442	0
bin	-12880.412227555	0
bin	-4292.2763376677	20514
bin	4295.8595522197	891
bin	12883.995442107	130
bin	21472.131331994	68
bin	30060.267221882	32
bin	38648.403111769	30
bin	47236.539001657	31
bin	55824.674891544	26
bin	64412.810781431	44
bin	73000.946671319	19
bin	81589.082561206	14
bin	90177.218451093	5
bin	98765.354340981	8
bin	107353.49023087	8
bin	115941.62612076	9
bin	124529.76201064	20
bin	133117.89790053	12
bin	141706.03379042	8
bin	150294.1696803	2
bin	158882.30557019	2
bin	167470.44146008	6
bin	176058.57734997	2
bin	184646.71323985	4
bin	193234.84912974	70
scalar scenarioPRJP1.node[63].lo0.lo 	droppedPkBitError:count 	0
attr interpolationmode  none
attr source  dropPkBitError
attr title  "packets dropped/bit error, count"
scalar scenarioPRJP1.node[63].lo0.lo 	droppedPkBitError:sum(packetBytes) 	0
attr interpolationmode  none
attr source  dropPkBitError
attr title  "packets dropped/bit error, sum(packetBytes)"
scalar scenarioPRJP1.node[63].lo0.lo 	rcvdPkFromHL:count 	0
attr interpolationmode  none
attr source  packetReceivedFromUpper
attr title  "packets received from higher layer, count"
scalar scenarioPRJP1.node[63].lo0.lo 	rcvdPkFromHL:sum(packetBytes) 	0
attr interpolationmode  none
attr source  packetReceivedFromUpper
attr title  "packets received from higher layer, sum(packetBytes)"
scalar scenarioPRJP1.node[63].lo0.lo 	passedUpPk:count 	0
attr interpolationmode  none
attr source  packetSentToUpper
attr title  "packets passed to higher layer, count"
scalar scenarioPRJP1.node[63].lo0.lo 	passedUpPk:sum(packetBytes) 	0
attr interpolationmode  none
attr source  packetSentToUpper
attr title  "packets passed to higher layer, sum(packetBytes)"
scalar scenarioPRJP1.node[34].app 	"Total sent" 	615
scalar scenarioPRJP1.node[34].app 	"Total received" 	39
scalar scenarioPRJP1.node[34].app 	"Total deleted" 	1
scalar scenarioPRJP1.node[34].app 	dropPk:count 	1
attr interpolationmode  none
attr source  dropPk
attr title  "packets dropped, count"
scalar scenarioPRJP1.node[34].app 	dropPk:sum(packetBytes) 	512
attr interpolationmode  none
attr source  dropPk
attr title  "packets dropped, sum(packetBytes)"
scalar scenarioPRJP1.node[34].app 	outOfOrderPk:count 	3
attr interpolationmode  none
attr source  outOfOrderPk
attr title  "packets received out of order, count"
scalar scenarioPRJP1.node[34].app 	outOfOrderPk:sum(packetBytes) 	1536
attr interpolationmode  none
attr source  outOfOrderPk
attr title  "packets received out of order, sum(packetBytes)"
scalar scenarioPRJP1.node[34].app 	rcvdPk:count 	39
attr interpolationmode  none
attr source  rcvdPk
attr title  "packets received, count"
scalar scenarioPRJP1.node[34].app 	rcvdPk:sum(packetBytes) 	19968
attr interpolationmode  none
attr source  rcvdPk
attr title  "packets received, sum(packetBytes)"
statistic scenarioPRJP1.node[34].app 	endToEndDelay:histogram
field count 39
field mean 1.0645492653281
field stddev 2.9946452796837
field sum 41.517421347794
field sqrsum 384.97755373713
field min 0.000945270864
field max 14.438950208869
attr interpolationmode  none
attr source  messageAge(rcvdPk)
attr title  "delay, histogram"
attr unit  s
bin	-INF	0
bin	-7.2180571981385	0
bin	-6.2555235356048	0
bin	-5.2929898730712	0
bin	-4.3304562105375	0
bin	-3.3679225480038	0
bin	-2.4053888854702	0
bin	-1.4428552229365	0
bin	-0.48032156040283	32
bin	0.48221210213083	1
bin	1.4447457646645	2
bin	2.4072794271982	0
bin	3.3698130897318	0
bin	4.3323467522655	0
bin	5.2948804147992	1
bin	6.2574140773328	0
bin	7.2199477398665	1
bin	8.1824814024002	1
bin	9.1450150649338	0
bin	10.107548727468	0
bin	11.070082390001	0
bin	12.032616052535	0
bin	12.995149715069	0
bin	13.957683377602	1
bin	14.920217040136	0
bin	15.88275070267	0
bin	16.845284365203	0
bin	17.807818027737	0
bin	18.770351690271	0
bin	19.732885352804	0
bin	20.695419015338	0
bin	21.657952677871	0
scalar scenarioPRJP1.node[34].app 	sentPk:count 	615
attr interpolationmode  none
attr source  sentPk
attr title  "packets sent, count"
scalar scenarioPRJP1.node[34].app 	sentPk:sum(packetBytes) 	314880
attr interpolationmode  none
attr source  sentPk
attr title  "packets sent, sum(packetBytes)"
scalar scenarioPRJP1.node[34].udp 	droppedPkBadChecksum:count 	0
attr interpolationmode  none
attr title  "packets dropped (checksum error), count"
scalar scenarioPRJP1.node[34].udp 	droppedPkWrongPort:count 	0
attr interpolationmode  none
attr title  "packets dropped (wrong port), count"
scalar scenarioPRJP1.node[34].udp 	passedUpPk:count 	43
attr interpolationmode  none
attr title  "packets passed up, count"
scalar scenarioPRJP1.node[34].udp 	rcvdPk:count 	43
attr interpolationmode  none
attr source  rcvdPk
attr title  "packets received, count"
scalar scenarioPRJP1.node[34].udp 	rcvdPk:sum(packetBytes) 	22360
attr interpolationmode  none
attr source  rcvdPk
attr title  "packets received, sum(packetBytes)"
scalar scenarioPRJP1.node[34].udp 	sentPk:count 	615
attr interpolationmode  none
attr source  sentPk
attr title  "packets sent, count"
scalar scenarioPRJP1.node[34].udp 	sentPk:sum(packetBytes) 	319800
attr interpolationmode  none
attr source  sentPk
attr title  "packets sent, sum(packetBytes)"
scalar scenarioPRJP1.node[34].networkLayer.arp 	failedARPResolution:count 	1
attr title  "ARP failed resolutions, count"
scalar scenarioPRJP1.node[34].networkLayer.arp 	completedARPResolution:count 	130
attr title  "ARP completed resolutions, count"
scalar scenarioPRJP1.node[34].networkLayer.arp 	initiatedARPResolution:count 	19
attr title  "ARP initiated resolutions, count"
scalar scenarioPRJP1.node[34].networkLayer.arp 	sentReply:count 	9
attr title  "ARP replies sent, count"
scalar scenarioPRJP1.node[34].networkLayer.arp 	sentReq:count 	25
attr title  "ARP request sent, count"
scalar scenarioPRJP1.node[34].mobility 	startTime 	2.5
scalar scenarioPRJP1.node[34].mobility 	totalTime 	245.9
scalar scenarioPRJP1.node[34].mobility 	stopTime 	248.5
scalar scenarioPRJP1.node[34].mobility 	minSpeed 	2.4762661337993e-13
scalar scenarioPRJP1.node[34].mobility 	maxSpeed 	15.919669981318
scalar scenarioPRJP1.node[34].mobility 	totalDistance 	2234.291420662
scalar scenarioPRJP1.node[34].mobility 	totalCO2Emission 	616.76660619686
scalar scenarioPRJP1.node[34].wlan[0].mgmt 	dataQueueLen:max 	2
attr interpolationmode  sample-hold
attr title  "data queue length, max"
scalar scenarioPRJP1.node[34].wlan[0].mgmt 	dataQueueLen:timeavg 	0
attr interpolationmode  sample-hold
attr title  "data queue length, timeavg"
scalar scenarioPRJP1.node[34].wlan[0].mgmt 	dropPkByQueue:count 	0
attr interpolationmode  none
attr source  dropPkByQueue
attr title  "packets dropped by queue, count"
scalar scenarioPRJP1.node[34].wlan[0].mgmt 	dropPkByQueue:sum(packetBytes) 	0
attr interpolationmode  none
attr source  dropPkByQueue
attr title  "packets dropped by queue, sum(packetBytes)"
scalar scenarioPRJP1.node[34].wlan[0].mac 	"number of received packets" 	561
scalar scenarioPRJP1.node[34].wlan[0].mac 	"number of collisions" 	2006
scalar scenarioPRJP1.node[34].wlan[0].mac 	"number of internal collisions" 	0
scalar scenarioPRJP1.node[34].wlan[0].mac 	"number of retry for AC 0" 	786
scalar scenarioPRJP1.node[34].wlan[0].mac 	"number of retry for AC 1" 	0
scalar scenarioPRJP1.node[34].wlan[0].mac 	"number of retry for AC 2" 	0
scalar scenarioPRJP1.node[34].wlan[0].mac 	"number of retry for AC 3" 	0
scalar scenarioPRJP1.node[34].wlan[0].mac 	"sent and received bits" 	2437568
scalar scenarioPRJP1.node[34].wlan[0].mac 	"sent packet within AC 0" 	65
scalar scenarioPRJP1.node[34].wlan[0].mac 	"sent packet within AC 1" 	0
scalar scenarioPRJP1.node[34].wlan[0].mac 	"sent packet within AC 2" 	0
scalar scenarioPRJP1.node[34].wlan[0].mac 	"sent packet within AC 3" 	0
scalar scenarioPRJP1.node[34].wlan[0].mac 	"sent in TXOP " 	0
scalar scenarioPRJP1.node[34].wlan[0].mac 	"sentWithoutRetry AC 0" 	61
scalar scenarioPRJP1.node[34].wlan[0].mac 	"sentWithoutRetry AC 1" 	0
scalar scenarioPRJP1.node[34].wlan[0].mac 	"sentWithoutRetry AC 2" 	0
scalar scenarioPRJP1.node[34].wlan[0].mac 	"sentWithoutRetry AC 3" 	0
scalar scenarioPRJP1.node[34].wlan[0].mac 	"numGivenUp AC 0" 	130
scalar scenarioPRJP1.node[34].wlan[0].mac 	"numGivenUp AC 1" 	0
scalar scenarioPRJP1.node[34].wlan[0].mac 	"numGivenUp AC 2" 	0
scalar scenarioPRJP1.node[34].wlan[0].mac 	"numGivenUp AC 3" 	0
scalar scenarioPRJP1.node[34].wlan[0].mac 	"numDropped AC 0" 	0
scalar scenarioPRJP1.node[34].wlan[0].mac 	"numDropped AC 1" 	0
scalar scenarioPRJP1.node[34].wlan[0].mac 	"numDropped AC 2" 	0
scalar scenarioPRJP1.node[34].wlan[0].mac 	"numDropped AC 3" 	0
scalar scenarioPRJP1.node[34].wlan[0].mac 	rcvdPkFromLL:count 	25063
attr interpolationmode  none
attr source  packetReceivedFromLower
attr title  "packets received from lower layer, count"
scalar scenarioPRJP1.node[34].wlan[0].mac 	rcvdPkFromLL:sum(packetBytes) 	3714018
attr interpolationmode  none
attr source  packetReceivedFromLower
attr title  "packets received from lower layer, sum(packetBytes)"
scalar scenarioPRJP1.node[34].wlan[0].mac 	sentDownPk:count 	4707
attr interpolationmode  none
attr source  packetSentToLower
attr title  "packets sent to lower layer, count"
scalar scenarioPRJP1.node[34].wlan[0].mac 	sentDownPk:sum(packetBytes) 	698402
attr interpolationmode  none
attr source  packetSentToLower
attr title  "packets sent to lower layer, sum(packetBytes)"
scalar scenarioPRJP1.node[34].wlan[0].mac 	rcvdPkFromHL:count 	3360
attr interpolationmode  none
attr source  packetReceivedFromUpper
attr title  "packets received from higher layer, count"
scalar scenarioPRJP1.node[34].wlan[0].mac 	rcvdPkFromHL:sum(packetBytes) 	359324
attr interpolationmode  none
attr source  packetReceivedFromUpper
attr title  "packets received from higher layer, sum(packetBytes)"
scalar scenarioPRJP1.node[34].wlan[0].mac 	passedUpPk:count 	14703
attr interpolationmode  none
attr source  packetSentToUpper
attr title  "packets passed to higher layer, count"
scalar scenarioPRJP1.node[34].wlan[0].mac 	passedUpPk:sum(packetBytes) 	1351596
attr interpolationmode  none
attr source  packetSentToUpper
attr title  "packets passed to higher layer, sum(packetBytes)"
statistic scenarioPRJP1.node[34].wlan[0].radio 	radioChannel:histogram
field count 1
field mean 3
field stddev nan
field sum 3
field sqrsum 9
field min 3
field max 3
attr interpolationmode  sample-hold
attr source  radioChannelChanged
attr title  "Radio channel, histogram"
bin	-INF	0
bin	2	0
bin	3	1
bin	4	0
scalar scenarioPRJP1.node[34].wlan[0].radio 	transmissionState:count 	18828
attr interpolationmode  sample-hold
attr source  transmissionStateChanged
attr title  "Radio transmission state, count"
scalar scenarioPRJP1.node[34].wlan[0].radio 	receptionState:count 	59805
attr interpolationmode  sample-hold
attr source  receptionStateChanged
attr title  "Radio reception state, count"
scalar scenarioPRJP1.node[34].wlan[0].radio 	radioMode:count 	9416
attr interpolationmode  sample-hold
attr source  radioModeChanged
attr title  "Radio mode, count"
statistic scenarioPRJP1.node[34].wlan[0].radio 	symbolErrorRate:histogram
field count 0
field mean nan
field stddev nan
field sum 0
field sqrsum 0
field min nan
field max nan
attr source  symbolErrorRate
attr title  "Symbol error rate, histogram"
bin	-INF	0
bin	-0.5	0
bin	-0.46666666666667	0
bin	-0.43333333333333	0
bin	-0.4	0
bin	-0.36666666666667	0
bin	-0.33333333333333	0
bin	-0.3	0
bin	-0.26666666666667	0
bin	-0.23333333333333	0
bin	-0.2	0
bin	-0.16666666666667	0
bin	-0.13333333333333	0
bin	-0.1	0
bin	-0.066666666666667	0
bin	-0.033333333333333	0
bin	0	0
bin	0.033333333333333	0
bin	0.066666666666667	0
bin	0.1	0
bin	0.13333333333333	0
bin	0.16666666666667	0
bin	0.2	0
bin	0.23333333333333	0
bin	0.26666666666667	0
bin	0.3	0
bin	0.33333333333333	0
bin	0.36666666666667	0
bin	0.4	0
bin	0.43333333333333	0
bin	0.46666666666667	0
bin	0.5	0
statistic scenarioPRJP1.node[34].wlan[0].radio 	bitErrorRate:histogram
field count 0
field mean nan
field stddev nan
field sum 0
field sqrsum 0
field min nan
field max nan
attr source  bitErrorRate
attr title  "Bit error rate, histogram"
bin	-INF	0
bin	-0.5	0
bin	-0.46666666666667	0
bin	-0.43333333333333	0
bin	-0.4	0
bin	-0.36666666666667	0
bin	-0.33333333333333	0
bin	-0.3	0
bin	-0.26666666666667	0
bin	-0.23333333333333	0
bin	-0.2	0
bin	-0.16666666666667	0
bin	-0.13333333333333	0
bin	-0.1	0
bin	-0.066666666666667	0
bin	-0.033333333333333	0
bin	0	0
bin	0.033333333333333	0
bin	0.066666666666667	0
bin	0.1	0
bin	0.13333333333333	0
bin	0.16666666666667	0
bin	0.2	0
bin	0.23333333333333	0
bin	0.26666666666667	0
bin	0.3	0
bin	0.33333333333333	0
bin	0.36666666666667	0
bin	0.4	0
bin	0.43333333333333	0
bin	0.46666666666667	0
bin	0.5	0
statistic scenarioPRJP1.node[34].wlan[0].radio 	packetErrorRate:histogram
field count 25063
field mean 0.066095393393421
field stddev 0.24164623559047
field sum 1656.5488446193
field sqrsum 1572.9331869336
field min 0
field max 1
attr source  packetErrorRate
attr title  "Packet error rate, histogram"
bin	-INF	0
bin	-0.5	0
bin	-0.43333333333333	0
bin	-0.36666666666667	0
bin	-0.3	0
bin	-0.23333333333333	0
bin	-0.16666666666667	0
bin	-0.1	0
bin	-0.033333333333333	23056
bin	0.033333333333333	158
bin	0.1	61
bin	0.16666666666667	53
bin	0.23333333333333	27
bin	0.3	25
bin	0.36666666666667	27
bin	0.43333333333333	22
bin	0.5	19
bin	0.56666666666667	35
bin	0.63333333333333	18
bin	0.7	24
bin	0.76666666666667	21
bin	0.83333333333333	32
bin	0.9	35
bin	0.96666666666667	1450
bin	1.0333333333333	0
bin	1.1	0
bin	1.1666666666667	0
bin	1.2333333333333	0
bin	1.3	0
bin	1.3666666666667	0
bin	1.4333333333333	0
bin	1.5	0
statistic scenarioPRJP1.node[34].wlan[0].radio 	minSNIR:histogram
field count 25063
field mean 18741.439529981
field stddev 93349.338024942
field sum 469716698.93992
field sqrsum 2.2719591398418e+14
field min 0.00016883427683236
field max 753239.71923443
attr source  minSNIR
attr title  "Min SNIR, histogram"
bin	-INF	0
bin	-209.26474138093	0
bin	-181.31263564973	0
bin	-153.36052991853	0
bin	-125.40842418733	0
bin	-97.456318456132	0
bin	-69.504212724934	0
bin	-41.552106993735	0
bin	-13.600001262537	6731
bin	14.352104468662	3182
bin	42.30421019986	1353
bin	70.256315931059	831
bin	98.208421662257	552
bin	126.16052739346	1139
bin	154.11263312465	864
bin	182.06473885585	597
bin	210.01684458705	443
bin	237.96895031825	573
bin	265.92105604945	287
bin	293.87316178065	332
bin	321.82526751185	248
bin	349.77737324304	166
bin	377.72947897424	203
bin	405.68158470544	171
bin	433.63369043664	160
bin	461.58579616784	108
bin	489.53790189904	117
bin	517.49000763024	83
bin	545.44211336143	143
bin	573.39421909263	95
bin	601.34632482383	117
bin	629.29843055503	6568
scalar scenarioPRJP1.node[34].lo0.lo 	droppedPkBitError:count 	0
attr interpolationmode  none
attr source  dropPkBitError
attr title  "packets dropped/bit error, count"
scalar scenarioPRJP1.node[34].lo0.lo 	droppedPkBitError:sum(packetBytes) 	0
attr interpolationmode  none
attr source  dropPkBitError
attr title  "packets dropped/bit error, sum(packetBytes)"
scalar scenarioPRJP1.node[34].lo0.lo 	rcvdPkFromHL:count 	0
attr interpolationmode  none
attr source  packetReceivedFromUpper
attr title  "packets received from higher layer, count"
scalar scenarioPRJP1.node[34].lo0.lo 	rcvdPkFromHL:sum(packetBytes) 	0
attr interpolationmode  none
attr source  packetReceivedFromUpper
attr title  "packets received from higher layer, sum(packetBytes)"
scalar scenarioPRJP1.node[34].lo0.lo 	passedUpPk:count 	0
attr interpolationmode  none
attr source  packetSentToUpper
attr title  "packets passed to higher layer, count"
scalar scenarioPRJP1.node[34].lo0.lo 	passedUpPk:sum(packetBytes) 	0
attr interpolationmode  none
attr source  packetSentToUpper
attr title  "packets passed to higher layer, sum(packetBytes)"
scalar scenarioPRJP1.node[86].app 	"Total sent" 	716
scalar scenarioPRJP1.node[86].app 	"Total received" 	50
scalar scenarioPRJP1.node[86].app 	"Total deleted" 	5
scalar scenarioPRJP1.node[86].app 	dropPk:count 	5
attr interpolationmode  none
attr source  dropPk
attr title  "packets dropped, count"
scalar scenarioPRJP1.node[86].app 	dropPk:sum(packetBytes) 	2560
attr interpolationmode  none
attr source  dropPk
attr title  "packets dropped, sum(packetBytes)"
scalar scenarioPRJP1.node[86].app 	outOfOrderPk:count 	0
attr interpolationmode  none
attr source  outOfOrderPk
attr title  "packets received out of order, count"
scalar scenarioPRJP1.node[86].app 	outOfOrderPk:sum(packetBytes) 	0
attr interpolationmode  none
attr source  outOfOrderPk
attr title  "packets received out of order, sum(packetBytes)"
scalar scenarioPRJP1.node[86].app 	rcvdPk:count 	50
attr interpolationmode  none
attr source  rcvdPk
attr title  "packets received, count"
scalar scenarioPRJP1.node[86].app 	rcvdPk:sum(packetBytes) 	25600
attr interpolationmode  none
attr source  rcvdPk
attr title  "packets received, sum(packetBytes)"
statistic scenarioPRJP1.node[86].app 	endToEndDelay:histogram
field count 50
field mean 0.71135404206404
field stddev 2.4542787488141
field sum 35.567702103202
field sqrsum 320.45195332518
field min 0.000958090131
field max 12.179709657684
attr interpolationmode  none
attr source  messageAge(rcvdPk)
attr title  "delay, histogram"
attr unit  s
bin	-INF	0
bin	-6.0884176936455	0
bin	-5.2765009224753	0
bin	-4.4645841513051	0
bin	-3.6526673801349	0
bin	-2.8407506089647	0
bin	-2.0288338377945	0
bin	-1.2169170666243	0
bin	-0.4050002954541	42
bin	0.4069164757161	4
bin	1.2188332468863	1
bin	2.0307500180565	0
bin	2.8426667892267	0
bin	3.6545835603969	0
bin	4.4665003315671	0
bin	5.2784171027373	0
bin	6.0903338739075	0
bin	6.9022506450777	1
bin	7.7141674162479	0
bin	8.5260841874181	0
bin	9.3380009585883	0
bin	10.149917729758	1
bin	10.961834500929	0
bin	11.773751272099	1
bin	12.585668043269	0
bin	13.397584814439	0
bin	14.20950158561	0
bin	15.02141835678	0
bin	15.83333512795	0
bin	16.64525189912	0
bin	17.45716867029	0
bin	18.269085441461	0
scalar scenarioPRJP1.node[86].app 	sentPk:count 	716
attr interpolationmode  none
attr source  sentPk
attr title  "packets sent, count"
scalar scenarioPRJP1.node[86].app 	sentPk:sum(packetBytes) 	366592
attr interpolationmode  none
attr source  sentPk
attr title  "packets sent, sum(packetBytes)"
scalar scenarioPRJP1.node[86].udp 	droppedPkBadChecksum:count 	0
attr interpolationmode  none
attr title  "packets dropped (checksum error), count"
scalar scenarioPRJP1.node[86].udp 	droppedPkWrongPort:count 	0
attr interpolationmode  none
attr title  "packets dropped (wrong port), count"
scalar scenarioPRJP1.node[86].udp 	passedUpPk:count 	55
attr interpolationmode  none
attr title  "packets passed up, count"
scalar scenarioPRJP1.node[86].udp 	rcvdPk:count 	55
attr interpolationmode  none
attr source  rcvdPk
attr title  "packets received, count"
scalar scenarioPRJP1.node[86].udp 	rcvdPk:sum(packetBytes) 	28600
attr interpolationmode  none
attr source  rcvdPk
attr title  "packets received, sum(packetBytes)"
scalar scenarioPRJP1.node[86].udp 	sentPk:count 	716
attr interpolationmode  none
attr source  sentPk
attr title  "packets sent, count"
scalar scenarioPRJP1.node[86].udp 	sentPk:sum(packetBytes) 	372320
attr interpolationmode  none
attr source  sentPk
attr title  "packets sent, sum(packetBytes)"
scalar scenarioPRJP1.node[86].networkLayer.arp 	failedARPResolution:count 	1
attr title  "ARP failed resolutions, count"
scalar scenarioPRJP1.node[86].networkLayer.arp 	completedARPResolution:count 	208
attr title  "ARP completed resolutions, count"
scalar scenarioPRJP1.node[86].networkLayer.arp 	initiatedARPResolution:count 	19
attr title  "ARP initiated resolutions, count"
scalar scenarioPRJP1.node[86].networkLayer.arp 	sentReply:count 	21
attr title  "ARP replies sent, count"
scalar scenarioPRJP1.node[86].networkLayer.arp 	sentReq:count 	27
attr title  "ARP request sent, count"
scalar scenarioPRJP1.node[86].mobility 	startTime 	9.7
scalar scenarioPRJP1.node[86].mobility 	totalTime 	274.9
scalar scenarioPRJP1.node[86].mobility 	stopTime 	284.7
scalar scenarioPRJP1.node[86].mobility 	minSpeed 	2.4754961393219e-13
scalar scenarioPRJP1.node[86].mobility 	maxSpeed 	16.672259227663
scalar scenarioPRJP1.node[86].mobility 	totalDistance 	2205.3030769397
scalar scenarioPRJP1.node[86].mobility 	totalCO2Emission 	662.28478914444
scalar scenarioPRJP1.node[86].wlan[0].mgmt 	dataQueueLen:max 	6
attr interpolationmode  sample-hold
attr title  "data queue length, max"
scalar scenarioPRJP1.node[86].wlan[0].mgmt 	dataQueueLen:timeavg 	0
attr interpolationmode  sample-hold
attr title  "data queue length, timeavg"
scalar scenarioPRJP1.node[86].wlan[0].mgmt 	dropPkByQueue:count 	0
attr interpolationmode  none
attr source  dropPkByQueue
attr title  "packets dropped by queue, count"
scalar scenarioPRJP1.node[86].wlan[0].mgmt 	dropPkByQueue:sum(packetBytes) 	0
attr interpolationmode  none
attr source  dropPkByQueue
attr title  "packets dropped by queue, sum(packetBytes)"
scalar scenarioPRJP1.node[86].wlan[0].mac 	"number of received packets" 	735
scalar scenarioPRJP1.node[86].wlan[0].mac 	"number of collisions" 	3891
scalar scenarioPRJP1.node[86].wlan[0].mac 	"number of internal collisions" 	0
scalar scenarioPRJP1.node[86].wlan[0].mac 	"number of retry for AC 0" 	1013
scalar scenarioPRJP1.node[86].wlan[0].mac 	"number of retry for AC 1" 	0
scalar scenarioPRJP1.node[86].wlan[0].mac 	"number of retry for AC 2" 	0
scalar scenarioPRJP1.node[86].wlan[0].mac 	"number of retry for AC 3" 	0
scalar scenarioPRJP1.node[86].wlan[0].mac 	"sent and received bits" 	3008224
scalar scenarioPRJP1.node[86].wlan[0].mac 	"sent packet within AC 0" 	115
scalar scenarioPRJP1.node[86].wlan[0].mac 	"sent packet within AC 1" 	0
scalar scenarioPRJP1.node[86].wlan[0].mac 	"sent packet within AC 2" 	0
scalar scenarioPRJP1.node[86].wlan[0].mac 	"sent packet within AC 3" 	0
scalar scenarioPRJP1.node[86].wlan[0].mac 	"sent in TXOP " 	0
scalar scenarioPRJP1.node[86].wlan[0].mac 	"sentWithoutRetry AC 0" 	100
scalar scenarioPRJP1.node[86].wlan[0].mac 	"sentWithoutRetry AC 1" 	0
scalar scenarioPRJP1.node[86].wlan[0].mac 	"sentWithoutRetry AC 2" 	0
scalar scenarioPRJP1.node[86].wlan[0].mac 	"sentWithoutRetry AC 3" 	0
scalar scenarioPRJP1.node[86].wlan[0].mac 	"numGivenUp AC 0" 	165
scalar scenarioPRJP1.node[86].wlan[0].mac 	"numGivenUp AC 1" 	0
scalar scenarioPRJP1.node[86].wlan[0].mac 	"numGivenUp AC 2" 	0
scalar scenarioPRJP1.node[86].wlan[0].mac 	"numGivenUp AC 3" 	0
scalar scenarioPRJP1.node[86].wlan[0].mac 	"numDropped AC 0" 	0
scalar scenarioPRJP1.node[86].wlan[0].mac 	"numDropped AC 1" 	0
scalar scenarioPRJP1.node[86].wlan[0].mac 	"numDropped AC 2" 	0
scalar scenarioPRJP1.node[86].wlan[0].mac 	"numDropped AC 3" 	0
scalar scenarioPRJP1.node[86].wlan[0].mac 	rcvdPkFromLL:count 	38996
attr interpolationmode  none
attr source  packetReceivedFromLower
attr title  "packets received from lower layer, count"
scalar scenarioPRJP1.node[86].wlan[0].mac 	rcvdPkFromLL:sum(packetBytes) 	6095050
attr interpolationmode  none
attr source  packetReceivedFromLower
attr title  "packets received from lower layer, sum(packetBytes)"
scalar scenarioPRJP1.node[86].wlan[0].mac 	sentDownPk:count 	5784
attr interpolationmode  none
attr source  packetSentToLower
attr title  "packets sent to lower layer, count"
scalar scenarioPRJP1.node[86].wlan[0].mac 	sentDownPk:sum(packetBytes) 	853506
attr interpolationmode  none
attr source  packetSentToLower
attr title  "packets sent to lower layer, sum(packetBytes)"
scalar scenarioPRJP1.node[86].wlan[0].mac 	rcvdPkFromHL:count 	4036
attr interpolationmode  none
attr source  packetReceivedFromUpper
attr title  "packets received from higher layer, count"
scalar scenarioPRJP1.node[86].wlan[0].mac 	rcvdPkFromHL:sum(packetBytes) 	441720
attr interpolationmode  none
attr source  packetReceivedFromUpper
attr title  "packets received from higher layer, sum(packetBytes)"
scalar scenarioPRJP1.node[86].wlan[0].mac 	passedUpPk:count 	21230
attr interpolationmode  none
attr source  packetSentToUpper
attr title  "packets passed to higher layer, count"
scalar scenarioPRJP1.node[86].wlan[0].mac 	passedUpPk:sum(packetBytes) 	1942688
attr interpolationmode  none
attr source  packetSentToUpper
attr title  "packets passed to higher layer, sum(packetBytes)"
statistic scenarioPRJP1.node[86].wlan[0].radio 	radioChannel:histogram
field count 1
field mean 3
field stddev nan
field sum 3
field sqrsum 9
field min 3
field max 3
attr interpolationmode  sample-hold
[...]
attr interpolationmode  sample-hold
attr source  radioChannelChanged
attr title  "Radio channel, histogram"
bin	-INF	0
bin	2	0
bin	3	1
bin	4	0
scalar scenarioPRJP1.node[76].wlan[0].radio 	transmissionState:count 	95208
attr interpolationmode  sample-hold
attr source  transmissionStateChanged
attr title  "Radio transmission state, count"
scalar scenarioPRJP1.node[76].wlan[0].radio 	receptionState:count 	324486
attr interpolationmode  sample-hold
attr source  receptionStateChanged
attr title  "Radio reception state, count"
scalar scenarioPRJP1.node[76].wlan[0].radio 	radioMode:count 	47606
attr interpolationmode  sample-hold
attr source  radioModeChanged
attr title  "Radio mode, count"
statistic scenarioPRJP1.node[76].wlan[0].radio 	symbolErrorRate:histogram
field count 0
field mean nan
field stddev nan
field sum 0
field sqrsum 0
field min nan
field max nan
attr source  symbolErrorRate
attr title  "Symbol error rate, histogram"
bin	-INF	0
bin	-0.5	0
bin	-0.46666666666667	0
bin	-0.43333333333333	0
bin	-0.4	0
bin	-0.36666666666667	0
bin	-0.33333333333333	0
bin	-0.3	0
bin	-0.26666666666667	0
bin	-0.23333333333333	0
bin	-0.2	0
bin	-0.16666666666667	0
bin	-0.13333333333333	0
bin	-0.1	0
bin	-0.066666666666667	0
bin	-0.033333333333333	0
bin	0	0
bin	0.033333333333333	0
bin	0.066666666666667	0
bin	0.1	0
bin	0.13333333333333	0
bin	0.16666666666667	0
bin	0.2	0
bin	0.23333333333333	0
bin	0.26666666666667	0
bin	0.3	0
bin	0.33333333333333	0
bin	0.36666666666667	0
bin	0.4	0
bin	0.43333333333333	0
bin	0.46666666666667	0
bin	0.5	0
statistic scenarioPRJP1.node[76].wlan[0].radio 	bitErrorRate:histogram
field count 0
field mean nan
field stddev nan
field sum 0
field sqrsum 0
field min nan
field max nan
attr source  bitErrorRate
attr title  "Bit error rate, histogram"
bin	-INF	0
bin	-0.5	0
bin	-0.46666666666667	0
bin	-0.43333333333333	0
bin	-0.4	0
bin	-0.36666666666667	0
bin	-0.33333333333333	0
bin	-0.3	0
bin	-0.26666666666667	0
bin	-0.23333333333333	0
bin	-0.2	0
bin	-0.16666666666667	0
bin	-0.13333333333333	0
bin	-0.1	0
bin	-0.066666666666667	0
bin	-0.033333333333333	0
bin	0	0
bin	0.033333333333333	0
bin	0.066666666666667	0
bin	0.1	0
bin	0.13333333333333	0
bin	0.16666666666667	0
bin	0.2	0
bin	0.23333333333333	0
bin	0.26666666666667	0
bin	0.3	0
bin	0.33333333333333	0
bin	0.36666666666667	0
bin	0.4	0
bin	0.43333333333333	0
bin	0.46666666666667	0
bin	0.5	0
statistic scenarioPRJP1.node[76].wlan[0].radio 	packetErrorRate:histogram
field count 137302
field mean 0.10186331797254
field stddev 0.2947432930882
field sum 13986.037284266
field sqrsum 13352.497527723
field min 0
field max 1
attr source  packetErrorRate
attr title  "Packet error rate, histogram"
bin	-INF	0
bin	-1.6743205963898e-06	0
bin	-1.4510778502045e-06	0
bin	-1.2278351040192e-06	0
bin	-1.0045923578339e-06	0
bin	-7.8134961164859e-07	0
bin	-5.5810686546328e-07	0
bin	-3.3486411927797e-07	0
bin	-1.1162137309266e-07	108097
bin	1.1162137309266e-07	894
bin	3.3486411927797e-07	414
bin	5.5810686546328e-07	297
bin	7.8134961164859e-07	229
bin	1.0045923578339e-06	201
bin	1.2278351040192e-06	154
bin	1.4510778502045e-06	131
bin	1.6743205963898e-06	119
bin	1.8975633425751e-06	98
bin	2.1208060887605e-06	87
bin	2.3440488349458e-06	90
bin	2.5672915811311e-06	62
bin	2.7905343273164e-06	68
bin	3.0137770735017e-06	73
bin	3.237019819687e-06	44
bin	3.4602625658723e-06	55
bin	3.6835053120576e-06	59
bin	3.9067480582429e-06	55
bin	4.1299908044283e-06	58
bin	4.3532335506136e-06	50
bin	4.5764762967989e-06	39
bin	4.7997190429842e-06	52
bin	5.0229617891695e-06	25876
statistic scenarioPRJP1.node[76].wlan[0].radio 	minSNIR:histogram
field count 137302
field mean 6307.1842375937
field stddev 46366.687713908
field sum 865989010.19009
field sqrsum 3.006412159732e+14
field min 0.00016882140376137
field max 1841436.081822
attr source  minSNIR
attr title  "Min SNIR, histogram"
bin	-INF	0
bin	-740.92051491698	0
bin	-641.62700237838	0
bin	-542.33348983978	0
bin	-443.03997730118	0
bin	-343.74646476257	0
bin	-244.45295222397	0
bin	-145.15943968537	0
bin	-45.865927146767	70419
bin	53.427585391835	17897
bin	152.72109793044	11054
bin	252.01461046904	5055
bin	351.30812300764	3347
bin	450.60163554624	2220
bin	549.89514808485	1668
bin	649.18866062345	1396
bin	748.48217316205	1024
bin	847.77568570065	942
bin	947.06919823926	833
bin	1046.3627107779	786
bin	1145.6562233165	717
bin	1244.9497358551	638
bin	1344.2432483937	507
bin	1443.5367609323	564
bin	1542.8302734709	565
bin	1642.1237860095	396
bin	1741.4172985481	350
bin	1840.7108110867	340
bin	1940.0043236253	304
bin	2039.2978361639	303
bin	2138.5913487025	321
bin	2237.8848612411	15656
scalar scenarioPRJP1.node[76].lo0.lo 	droppedPkBitError:count 	0
attr interpolationmode  none
attr source  dropPkBitError
attr title  "packets dropped/bit error, count"
scalar scenarioPRJP1.node[76].lo0.lo 	droppedPkBitError:sum(packetBytes) 	0
attr interpolationmode  none
attr source  dropPkBitError
attr title  "packets dropped/bit error, sum(packetBytes)"
scalar scenarioPRJP1.node[76].lo0.lo 	rcvdPkFromHL:count 	0
attr interpolationmode  none
attr source  packetReceivedFromUpper
attr title  "packets received from higher layer, count"
scalar scenarioPRJP1.node[76].lo0.lo 	rcvdPkFromHL:sum(packetBytes) 	0
attr interpolationmode  none
attr source  packetReceivedFromUpper
attr title  "packets received from higher layer, sum(packetBytes)"
scalar scenarioPRJP1.node[76].lo0.lo 	passedUpPk:count 	0
attr interpolationmode  none
attr source  packetSentToUpper
attr title  "packets passed to higher layer, count"
scalar scenarioPRJP1.node[76].lo0.lo 	passedUpPk:sum(packetBytes) 	0
attr interpolationmode  none
attr source  packetSentToUpper
attr title  "packets passed to higher layer, sum(packetBytes)"
scalar scenarioPRJP1.node[94].app 	"Total sent" 	2609
scalar scenarioPRJP1.node[94].app 	"Total received" 	155
scalar scenarioPRJP1.node[94].app 	"Total deleted" 	109
scalar scenarioPRJP1.node[94].app 	dropPk:count 	109
attr interpolationmode  none
attr source  dropPk
attr title  "packets dropped, count"
scalar scenarioPRJP1.node[94].app 	dropPk:sum(packetBytes) 	55808
attr interpolationmode  none
attr source  dropPk
attr title  "packets dropped, sum(packetBytes)"
scalar scenarioPRJP1.node[94].app 	outOfOrderPk:count 	15
attr interpolationmode  none
attr source  outOfOrderPk
attr title  "packets received out of order, count"
scalar scenarioPRJP1.node[94].app 	outOfOrderPk:sum(packetBytes) 	7680
attr interpolationmode  none
attr source  outOfOrderPk
attr title  "packets received out of order, sum(packetBytes)"
scalar scenarioPRJP1.node[94].app 	rcvdPk:count 	155
attr interpolationmode  none
attr source  rcvdPk
attr title  "packets received, count"
scalar scenarioPRJP1.node[94].app 	rcvdPk:sum(packetBytes) 	79360
attr interpolationmode  none
attr source  rcvdPk
attr title  "packets received, sum(packetBytes)"
statistic scenarioPRJP1.node[94].app 	endToEndDelay:histogram
field count 155
field mean 1.2139472486793
field stddev 3.4302439078732
field sum 188.16182354529
field sqrsum 2040.4708111945
field min 0.000945054589
field max 19.834495994414
attr interpolationmode  none
attr source  messageAge(rcvdPk)
attr title  "delay, histogram"
attr unit  s
bin	-INF	0
bin	-9.5107338283275	0
bin	-8.242509977272	0
bin	-6.9742861262164	0
bin	-5.7060622751609	0
bin	-4.4378384241054	0
bin	-3.1696145730498	0
bin	-1.9013907219943	0
bin	-0.63316687093877	124
bin	0.63505698011677	12
bin	1.9032808311723	2
bin	3.1715046822278	1
bin	4.4397285332834	4
bin	5.7079523843389	0
bin	6.9761762353944	1
bin	8.24440008645	3
bin	9.5126239375055	3
bin	10.780847788561	1
bin	12.049071639617	1
bin	13.317295490672	1
bin	14.585519341728	0
bin	15.853743192783	0
bin	17.121967043839	0
bin	18.390190894894	1
bin	19.65841474595	1
bin	20.926638597005	0
bin	22.194862448061	0
bin	23.463086299116	0
bin	24.731310150172	0
bin	25.999534001227	0
bin	27.267757852283	0
bin	28.535981703338	0
scalar scenarioPRJP1.node[94].app 	sentPk:count 	2609
attr interpolationmode  none
attr source  sentPk
attr title  "packets sent, count"
scalar scenarioPRJP1.node[94].app 	sentPk:sum(packetBytes) 	1335808
attr interpolationmode  none
attr source  sentPk
attr title  "packets sent, sum(packetBytes)"
scalar scenarioPRJP1.node[94].udp 	droppedPkBadChecksum:count 	0
attr interpolationmode  none
attr title  "packets dropped (checksum error), count"
scalar scenarioPRJP1.node[94].udp 	droppedPkWrongPort:count 	0
attr interpolationmode  none
attr title  "packets dropped (wrong port), count"
scalar scenarioPRJP1.node[94].udp 	passedUpPk:count 	279
attr interpolationmode  none
attr title  "packets passed up, count"
scalar scenarioPRJP1.node[94].udp 	rcvdPk:count 	279
attr interpolationmode  none
attr source  rcvdPk
attr title  "packets received, count"
scalar scenarioPRJP1.node[94].udp 	rcvdPk:sum(packetBytes) 	145080
attr interpolationmode  none
attr source  rcvdPk
attr title  "packets received, sum(packetBytes)"
scalar scenarioPRJP1.node[94].udp 	sentPk:count 	2609
attr interpolationmode  none
attr source  sentPk
attr title  "packets sent, count"
scalar scenarioPRJP1.node[94].udp 	sentPk:sum(packetBytes) 	1356680
attr interpolationmode  none
attr source  sentPk
attr title  "packets sent, sum(packetBytes)"
scalar scenarioPRJP1.node[94].networkLayer.arp 	failedARPResolution:count 	4
attr title  "ARP failed resolutions, count"
scalar scenarioPRJP1.node[94].networkLayer.arp 	completedARPResolution:count 	650
attr title  "ARP completed resolutions, count"
scalar scenarioPRJP1.node[94].networkLayer.arp 	initiatedARPResolution:count 	71
attr title  "ARP initiated resolutions, count"
scalar scenarioPRJP1.node[94].networkLayer.arp 	sentReply:count 	76
attr title  "ARP replies sent, count"
scalar scenarioPRJP1.node[94].networkLayer.arp 	sentReq:count 	101
attr title  "ARP request sent, count"
scalar scenarioPRJP1.node[94].mobility 	startTime 	9.7
scalar scenarioPRJP1.node[94].mobility 	totalTime 	940.2
scalar scenarioPRJP1.node[94].mobility 	stopTime 	950
scalar scenarioPRJP1.node[94].mobility 	minSpeed 	2.4754328059607e-13
scalar scenarioPRJP1.node[94].mobility 	maxSpeed 	16.351487865422
scalar scenarioPRJP1.node[94].mobility 	totalDistance 	8783.6222890129
scalar scenarioPRJP1.node[94].mobility 	totalCO2Emission 	2281.0070005059
scalar scenarioPRJP1.node[94].wlan[0].mgmt 	dataQueueLen:max 	30
attr interpolationmode  sample-hold
attr title  "data queue length, max"
scalar scenarioPRJP1.node[94].wlan[0].mgmt 	dataQueueLen:timeavg 	0
attr interpolationmode  sample-hold
attr title  "data queue length, timeavg"
scalar scenarioPRJP1.node[94].wlan[0].mgmt 	dropPkByQueue:count 	0
attr interpolationmode  none
attr source  dropPkByQueue
attr title  "packets dropped by queue, count"
scalar scenarioPRJP1.node[94].wlan[0].mgmt 	dropPkByQueue:sum(packetBytes) 	0
attr interpolationmode  none
attr source  dropPkByQueue
attr title  "packets dropped by queue, sum(packetBytes)"
scalar scenarioPRJP1.node[94].wlan[0].mac 	"number of received packets" 	4308
scalar scenarioPRJP1.node[94].wlan[0].mac 	"number of collisions" 	23690
scalar scenarioPRJP1.node[94].wlan[0].mac 	"number of internal collisions" 	0
scalar scenarioPRJP1.node[94].wlan[0].mac 	"number of retry for AC 0" 	6728
scalar scenarioPRJP1.node[94].wlan[0].mac 	"number of retry for AC 1" 	0
scalar scenarioPRJP1.node[94].wlan[0].mac 	"number of retry for AC 2" 	0
scalar scenarioPRJP1.node[94].wlan[0].mac 	"number of retry for AC 3" 	0
scalar scenarioPRJP1.node[94].wlan[0].mac 	"sent and received bits" 	14665568
scalar scenarioPRJP1.node[94].wlan[0].mac 	"sent packet within AC 0" 	659
scalar scenarioPRJP1.node[94].wlan[0].mac 	"sent packet within AC 1" 	0
scalar scenarioPRJP1.node[94].wlan[0].mac 	"sent packet within AC 2" 	0
scalar scenarioPRJP1.node[94].wlan[0].mac 	"sent packet within AC 3" 	0
scalar scenarioPRJP1.node[94].wlan[0].mac 	"sent in TXOP " 	0
scalar scenarioPRJP1.node[94].wlan[0].mac 	"sentWithoutRetry AC 0" 	592
scalar scenarioPRJP1.node[94].wlan[0].mac 	"sentWithoutRetry AC 1" 	0
scalar scenarioPRJP1.node[94].wlan[0].mac 	"sentWithoutRetry AC 2" 	0
scalar scenarioPRJP1.node[94].wlan[0].mac 	"sentWithoutRetry AC 3" 	0
scalar scenarioPRJP1.node[94].wlan[0].mac 	"numGivenUp AC 0" 	1102
scalar scenarioPRJP1.node[94].wlan[0].mac 	"numGivenUp AC 1" 	0
scalar scenarioPRJP1.node[94].wlan[0].mac 	"numGivenUp AC 2" 	0
scalar scenarioPRJP1.node[94].wlan[0].mac 	"numGivenUp AC 3" 	0
scalar scenarioPRJP1.node[94].wlan[0].mac 	"numDropped AC 0" 	0
scalar scenarioPRJP1.node[94].wlan[0].mac 	"numDropped AC 1" 	0
scalar scenarioPRJP1.node[94].wlan[0].mac 	"numDropped AC 2" 	0
scalar scenarioPRJP1.node[94].wlan[0].mac 	"numDropped AC 3" 	0
scalar scenarioPRJP1.node[94].wlan[0].mac 	rcvdPkFromLL:count 	178641
attr interpolationmode  none
attr source  packetReceivedFromLower
attr title  "packets received from lower layer, count"
scalar scenarioPRJP1.node[94].wlan[0].mac 	rcvdPkFromLL:sum(packetBytes) 	29372114
attr interpolationmode  none
attr source  packetReceivedFromLower
attr title  "packets received from lower layer, sum(packetBytes)"
scalar scenarioPRJP1.node[94].wlan[0].mac 	sentDownPk:count 	30390
attr interpolationmode  none
attr source  packetSentToLower
attr title  "packets sent to lower layer, count"
scalar scenarioPRJP1.node[94].wlan[0].mac 	sentDownPk:sum(packetBytes) 	5167284
attr interpolationmode  none
attr source  packetSentToLower
attr title  "packets sent to lower layer, sum(packetBytes)"
scalar scenarioPRJP1.node[94].wlan[0].mac 	rcvdPkFromHL:count 	19354
attr interpolationmode  none
attr source  packetReceivedFromUpper
attr title  "packets received from higher layer, count"
scalar scenarioPRJP1.node[94].wlan[0].mac 	rcvdPkFromHL:sum(packetBytes) 	2293664
attr interpolationmode  none
attr source  packetReceivedFromUpper
attr title  "packets received from higher layer, sum(packetBytes)"
scalar scenarioPRJP1.node[94].wlan[0].mac 	passedUpPk:count 	89324
attr interpolationmode  none
attr source  packetSentToUpper
attr title  "packets passed to higher layer, count"
scalar scenarioPRJP1.node[94].wlan[0].mac 	passedUpPk:sum(packetBytes) 	8367216
attr interpolationmode  none
attr source  packetSentToUpper
attr title  "packets passed to higher layer, sum(packetBytes)"
statistic scenarioPRJP1.node[94].wlan[0].radio 	radioChannel:histogram
field count 1
field mean 3
field stddev nan
field sum 3
field sqrsum 9
field min 3
field max 3
attr interpolationmode  sample-hold
attr source  radioChannelChanged
attr title  "Radio channel, histogram"
bin	-INF	0
bin	2	0
bin	3	1
bin	4	0
scalar scenarioPRJP1.node[94].wlan[0].radio 	transmissionState:count 	121560
attr interpolationmode  sample-hold
attr source  transmissionStateChanged
attr title  "Radio transmission state, count"
scalar scenarioPRJP1.node[94].wlan[0].radio 	receptionState:count 	421390
attr interpolationmode  sample-hold
attr source  receptionStateChanged
attr title  "Radio reception state, count"
scalar scenarioPRJP1.node[94].wlan[0].radio 	radioMode:count 	60782
attr interpolationmode  sample-hold
attr source  radioModeChanged
attr title  "Radio mode, count"
statistic scenarioPRJP1.node[94].wlan[0].radio 	symbolErrorRate:histogram
field count 0
field mean nan
field stddev nan
field sum 0
field sqrsum 0
field min nan
field max nan
attr source  symbolErrorRate
attr title  "Symbol error rate, histogram"
bin	-INF	0
bin	-0.5	0
bin	-0.46666666666667	0
bin	-0.43333333333333	0
bin	-0.4	0
bin	-0.36666666666667	0
bin	-0.33333333333333	0
bin	-0.3	0
bin	-0.26666666666667	0
bin	-0.23333333333333	0
bin	-0.2	0
bin	-0.16666666666667	0
bin	-0.13333333333333	0
bin	-0.1	0
bin	-0.066666666666667	0
bin	-0.033333333333333	0
bin	0	0
bin	0.033333333333333	0
bin	0.066666666666667	0
bin	0.1	0
bin	0.13333333333333	0
bin	0.16666666666667	0
bin	0.2	0
bin	0.23333333333333	0
bin	0.26666666666667	0
bin	0.3	0
bin	0.33333333333333	0
bin	0.36666666666667	0
bin	0.4	0
bin	0.43333333333333	0
bin	0.46666666666667	0
bin	0.5	0
statistic scenarioPRJP1.node[94].wlan[0].radio 	bitErrorRate:histogram
field count 0
field mean nan
field stddev nan
field sum 0
field sqrsum 0
field min nan
field max nan
attr source  bitErrorRate
attr title  "Bit error rate, histogram"
bin	-INF	0
bin	-0.5	0
bin	-0.46666666666667	0
bin	-0.43333333333333	0
bin	-0.4	0
bin	-0.36666666666667	0
bin	-0.33333333333333	0
bin	-0.3	0
bin	-0.26666666666667	0
bin	-0.23333333333333	0
bin	-0.2	0
bin	-0.16666666666667	0
bin	-0.13333333333333	0
bin	-0.1	0
bin	-0.066666666666667	0
bin	-0.033333333333333	0
bin	0	0
bin	0.033333333333333	0
bin	0.066666666666667	0
bin	0.1	0
bin	0.13333333333333	0
bin	0.16666666666667	0
bin	0.2	0
bin	0.23333333333333	0
bin	0.26666666666667	0
bin	0.3	0
bin	0.33333333333333	0
bin	0.36666666666667	0
bin	0.4	0
bin	0.43333333333333	0
bin	0.46666666666667	0
bin	0.5	0
statistic scenarioPRJP1.node[94].wlan[0].radio 	packetErrorRate:histogram
field count 178641
field mean 0.11173715072522
field stddev 0.30636642412419
field sum 19960.836342705
field sqrsum 18997.586303812
field min 0
field max 1
attr source  packetErrorRate
attr title  "Packet error rate, histogram"
bin	-INF	0
bin	-0.49212903376825	0
bin	-0.42651182926582	0
bin	-0.36089462476338	0
bin	-0.29527742026095	0
bin	-0.22966021575852	0
bin	-0.16404301125608	0
bin	-0.09842580675365	0
bin	-0.032808602251217	154546
bin	0.032808602251217	1754
bin	0.09842580675365	861
bin	0.16404301125608	513
bin	0.22966021575852	421
bin	0.29527742026095	307
bin	0.36089462476338	298
bin	0.42651182926582	296
bin	0.49212903376825	276
bin	0.55774623827069	234
bin	0.62336344277312	217
bin	0.68898064727555	250
bin	0.75459785177799	251
bin	0.82021505628042	306
bin	0.88583226078285	406
bin	0.95144946528529	17705
bin	1.0170666697877	0
bin	1.0826838742902	0
bin	1.1483010787926	0
bin	1.213918283295	0
bin	1.2795354877975	0
bin	1.3451526922999	0
bin	1.4107698968023	0
bin	1.4763871013048	0
statistic scenarioPRJP1.node[94].wlan[0].radio 	minSNIR:histogram
field count 178641
field mean 6213.2162702883
field stddev 51415.416617658
field sum 1109935167.7406
field sqrsum 4.7913915782757e+14
field min 0.00016803903127022
field max 1750288.891804
attr source  minSNIR
attr title  "Min SNIR, histogram"
bin	-INF	0
bin	-175.97210646409	0
bin	-152.29216328968	0
bin	-128.61222011526	0
bin	-104.93227694084	0
bin	-81.252333766428	0
bin	-57.572390592011	0
bin	-33.892447417595	0
bin	-10.212504243179	66352
bin	13.467438931238	23700
bin	37.147382105654	9873
bin	60.82732528007	5992
bin	84.507268454487	4327
bin	108.1872116289	4124
bin	131.86715480332	5203
bin	155.54709797774	4464
bin	179.22704115215	3564
bin	202.90698432657	3016
bin	226.58692750099	2546
bin	250.2668706754	2144
bin	273.94681384982	1911
bin	297.62675702423	1766
bin	321.30670019865	1508
bin	344.98664337307	1392
bin	368.66658654748	1140
bin	392.3465297219	1114
bin	416.02647289632	867
bin	439.70641607073	758
bin	463.38635924515	851
bin	487.06630241957	748
bin	510.74624559398	732
bin	534.4261887684	30549
scalar scenarioPRJP1.node[94].lo0.lo 	droppedPkBitError:count 	0
attr interpolationmode  none
attr source  dropPkBitError
attr title  "packets dropped/bit error, count"
scalar scenarioPRJP1.node[94].lo0.lo 	droppedPkBitError:sum(packetBytes) 	0
attr interpolationmode  none
attr source  dropPkBitError
attr title  "packets dropped/bit error, sum(packetBytes)"
scalar scenarioPRJP1.node[94].lo0.lo 	rcvdPkFromHL:count 	0
attr interpolationmode  none
attr source  packetReceivedFromUpper
attr title  "packets received from higher layer, count"
scalar scenarioPRJP1.node[94].lo0.lo 	rcvdPkFromHL:sum(packetBytes) 	0
attr interpolationmode  none
attr source  packetReceivedFromUpper
attr title  "packets received from higher layer, sum(packetBytes)"
scalar scenarioPRJP1.node[94].lo0.lo 	passedUpPk:count 	0
attr interpolationmode  none
attr source  packetSentToUpper
attr title  "packets passed to higher layer, count"
scalar scenarioPRJP1.node[94].lo0.lo 	passedUpPk:sum(packetBytes) 	0
attr interpolationmode  none
attr source  packetSentToUpper
attr title  "packets passed to higher layer, sum(packetBytes)"
