version 2
run AODVRouting-TRG-100n-10-20150730-14:54:40-19753
attr configname AODVRouting-TRG-100n
attr datetime 20150730-14:54:40
attr experiment AODVRouting-TRG-100n
attr inifile omnetpp.ini
attr iterationvars ""
attr iterationvars2 $repetition=10
attr measurement ""
attr network Prj_Part1_propag.scenarioPRJP1
attr processid 19753
attr repetition 10
attr replication #10
attr resultdir results
attr runnumber 10
attr seedset 10

scalar scenarioPRJP1.node[97].app 	"Total sent" 	363
scalar scenarioPRJP1.node[97].app 	"Total received" 	22
scalar scenarioPRJP1.node[97].app 	"Total deleted" 	0
scalar scenarioPRJP1.node[97].app 	dropPk:count 	0
attr interpolationmode  none
attr source  dropPk
attr title  "packets dropped, count"
scalar scenarioPRJP1.node[97].app 	dropPk:sum(packetBytes) 	0
attr interpolationmode  none
attr source  dropPk
attr title  "packets dropped, sum(packetBytes)"
scalar scenarioPRJP1.node[97].app 	outOfOrderPk:count 	0
attr interpolationmode  none
attr source  outOfOrderPk
attr title  "packets received out of order, count"
scalar scenarioPRJP1.node[97].app 	outOfOrderPk:sum(packetBytes) 	0
attr interpolationmode  none
attr source  outOfOrderPk
attr title  "packets received out of order, sum(packetBytes)"
scalar scenarioPRJP1.node[97].app 	rcvdPk:count 	22
attr interpolationmode  none
attr source  rcvdPk
attr title  "packets received, count"
scalar scenarioPRJP1.node[97].app 	rcvdPk:sum(packetBytes) 	11264
attr interpolationmode  none
attr source  rcvdPk
attr title  "packets received, sum(packetBytes)"
statistic scenarioPRJP1.node[97].app 	endToEndDelay:histogram
field count 22
field mean 0.33136393533718
field stddev 1.5154944250759
field sum 7.290006577418
field sqrsum 50.646835669283
field min 0.00094574523
field max 7.116377970683
attr interpolationmode  none
attr source  messageAge(rcvdPk)
attr title  "delay, histogram"
attr unit  s
bin	-INF	0
bin	-3.5567703674965	0
bin	-3.082408219133	0
bin	-2.6080460707694	0
bin	-2.1336839224059	0
bin	-1.6593217740424	0
bin	-1.1849596256788	0
bin	-0.7105974773153	0
bin	-0.23623532895177	21
bin	0.23812681941177	0
bin	0.7124889677753	0
bin	1.1868511161388	0
bin	1.6612132645024	0
bin	2.1355754128659	0
bin	2.6099375612294	0
bin	3.084299709593	0
bin	3.5586618579565	0
bin	4.03302400632	0
bin	4.5073861546836	0
bin	4.9817483030471	0
bin	5.4561104514106	0
bin	5.9304725997742	0
bin	6.4048347481377	0
bin	6.8791968965012	1
bin	7.3535590448648	0
bin	7.8279211932283	0
bin	8.3022833415918	0
bin	8.7766454899554	0
bin	9.2510076383189	0
bin	9.7253697866824	0
bin	10.199731935046	0
bin	10.674094083409	0
scalar scenarioPRJP1.node[97].app 	sentPk:count 	363
attr interpolationmode  none
attr source  sentPk
attr title  "packets sent, count"
scalar scenarioPRJP1.node[97].app 	sentPk:sum(packetBytes) 	185856
attr interpolationmode  none
attr source  sentPk
attr title  "packets sent, sum(packetBytes)"
scalar scenarioPRJP1.node[97].udp 	droppedPkBadChecksum:count 	0
attr interpolationmode  none
attr title  "packets dropped (checksum error), count"
scalar scenarioPRJP1.node[97].udp 	droppedPkWrongPort:count 	0
attr interpolationmode  none
attr title  "packets dropped (wrong port), count"
scalar scenarioPRJP1.node[97].udp 	passedUpPk:count 	22
attr interpolationmode  none
attr title  "packets passed up, count"
scalar scenarioPRJP1.node[97].udp 	rcvdPk:count 	22
attr interpolationmode  none
attr source  rcvdPk
attr title  "packets received, count"
scalar scenarioPRJP1.node[97].udp 	rcvdPk:sum(packetBytes) 	11440
attr interpolationmode  none
attr source  rcvdPk
attr title  "packets received, sum(packetBytes)"
scalar scenarioPRJP1.node[97].udp 	sentPk:count 	363
attr interpolationmode  none
attr source  sentPk
attr title  "packets sent, count"
scalar scenarioPRJP1.node[97].udp 	sentPk:sum(packetBytes) 	188760
attr interpolationmode  none
attr source  sentPk
attr title  "packets sent, sum(packetBytes)"
scalar scenarioPRJP1.node[97].networkLayer.arp 	failedARPResolution:count 	0
attr title  "ARP failed resolutions, count"
scalar scenarioPRJP1.node[97].networkLayer.arp 	completedARPResolution:count 	59
attr title  "ARP completed resolutions, count"
scalar scenarioPRJP1.node[97].networkLayer.arp 	initiatedARPResolution:count 	11
attr title  "ARP initiated resolutions, count"
scalar scenarioPRJP1.node[97].networkLayer.arp 	sentReply:count 	7
attr title  "ARP replies sent, count"
scalar scenarioPRJP1.node[97].networkLayer.arp 	sentReq:count 	15
attr title  "ARP request sent, count"
scalar scenarioPRJP1.node[97].mobility 	startTime 	9.8
scalar scenarioPRJP1.node[97].mobility 	totalTime 	148.6
scalar scenarioPRJP1.node[97].mobility 	stopTime 	158.5
scalar scenarioPRJP1.node[97].mobility 	minSpeed 	2.4782956647427e-13
scalar scenarioPRJP1.node[97].mobility 	maxSpeed 	19.645296352026
scalar scenarioPRJP1.node[97].mobility 	totalDistance 	1483.9480751217
scalar scenarioPRJP1.node[97].mobility 	totalCO2Emission 	471.62578770057
scalar scenarioPRJP1.node[97].wlan[0].mgmt 	dataQueueLen:max 	0
attr interpolationmode  sample-hold
attr title  "data queue length, max"
scalar scenarioPRJP1.node[97].wlan[0].mgmt 	dataQueueLen:timeavg 	0
attr interpolationmode  sample-hold
attr title  "data queue length, timeavg"
scalar scenarioPRJP1.node[97].wlan[0].mgmt 	dropPkByQueue:count 	0
attr interpolationmode  none
attr source  dropPkByQueue
attr title  "packets dropped by queue, count"
scalar scenarioPRJP1.node[97].wlan[0].mgmt 	dropPkByQueue:sum(packetBytes) 	0
attr interpolationmode  none
attr source  dropPkByQueue
attr title  "packets dropped by queue, sum(packetBytes)"
scalar scenarioPRJP1.node[97].wlan[0].mac 	"number of received packets" 	228
scalar scenarioPRJP1.node[97].wlan[0].mac 	"number of collisions" 	1111
scalar scenarioPRJP1.node[97].wlan[0].mac 	"number of internal collisions" 	0
scalar scenarioPRJP1.node[97].wlan[0].mac 	"number of retry for AC 0" 	347
scalar scenarioPRJP1.node[97].wlan[0].mac 	"number of retry for AC 1" 	0
scalar scenarioPRJP1.node[97].wlan[0].mac 	"number of retry for AC 2" 	0
scalar scenarioPRJP1.node[97].wlan[0].mac 	"number of retry for AC 3" 	0
scalar scenarioPRJP1.node[97].wlan[0].mac 	"sent and received bits" 	1428992
scalar scenarioPRJP1.node[97].wlan[0].mac 	"sent packet within AC 0" 	22
scalar scenarioPRJP1.node[97].wlan[0].mac 	"sent packet within AC 1" 	0
scalar scenarioPRJP1.node[97].wlan[0].mac 	"sent packet within AC 2" 	0
scalar scenarioPRJP1.node[97].wlan[0].mac 	"sent packet within AC 3" 	0
scalar scenarioPRJP1.node[97].wlan[0].mac 	"sent in TXOP " 	0
scalar scenarioPRJP1.node[97].wlan[0].mac 	"sentWithoutRetry AC 0" 	18
scalar scenarioPRJP1.node[97].wlan[0].mac 	"sentWithoutRetry AC 1" 	0
scalar scenarioPRJP1.node[97].wlan[0].mac 	"sentWithoutRetry AC 2" 	0
scalar scenarioPRJP1.node[97].wlan[0].mac 	"sentWithoutRetry AC 3" 	0
scalar scenarioPRJP1.node[97].wlan[0].mac 	"numGivenUp AC 0" 	57
scalar scenarioPRJP1.node[97].wlan[0].mac 	"numGivenUp AC 1" 	0
scalar scenarioPRJP1.node[97].wlan[0].mac 	"numGivenUp AC 2" 	0
scalar scenarioPRJP1.node[97].wlan[0].mac 	"numGivenUp AC 3" 	0
scalar scenarioPRJP1.node[97].wlan[0].mac 	"numDropped AC 0" 	0
scalar scenarioPRJP1.node[97].wlan[0].mac 	"numDropped AC 1" 	0
scalar scenarioPRJP1.node[97].wlan[0].mac 	"numDropped AC 2" 	0
scalar scenarioPRJP1.node[97].wlan[0].mac 	"numDropped AC 3" 	0
scalar scenarioPRJP1.node[97].wlan[0].mac 	rcvdPkFromLL:count 	12459
attr interpolationmode  none
attr source  packetReceivedFromLower
attr title  "packets received from lower layer, count"
scalar scenarioPRJP1.node[97].wlan[0].mac 	rcvdPkFromLL:sum(packetBytes) 	1663522
attr interpolationmode  none
attr source  packetReceivedFromLower
attr title  "packets received from lower layer, sum(packetBytes)"
scalar scenarioPRJP1.node[97].wlan[0].mac 	sentDownPk:count 	2578
attr interpolationmode  none
attr source  packetSentToLower
attr title  "packets sent to lower layer, count"
scalar scenarioPRJP1.node[97].wlan[0].mac 	sentDownPk:sum(packetBytes) 	329648
attr interpolationmode  none
attr source  packetSentToLower
attr title  "packets sent to lower layer, sum(packetBytes)"
scalar scenarioPRJP1.node[97].wlan[0].mac 	rcvdPkFromHL:count 	2003
attr interpolationmode  none
attr source  packetReceivedFromUpper
attr title  "packets received from higher layer, count"
scalar scenarioPRJP1.node[97].wlan[0].mac 	rcvdPkFromHL:sum(packetBytes) 	199548
attr interpolationmode  none
attr source  packetReceivedFromUpper
attr title  "packets received from higher layer, sum(packetBytes)"
scalar scenarioPRJP1.node[97].wlan[0].mac 	passedUpPk:count 	8172
attr interpolationmode  none
attr source  packetSentToUpper
attr title  "packets passed to higher layer, count"
scalar scenarioPRJP1.node[97].wlan[0].mac 	passedUpPk:sum(packetBytes) 	740140
attr interpolationmode  none
attr source  packetSentToUpper
attr title  "packets passed to higher layer, sum(packetBytes)"
statistic scenarioPRJP1.node[97].wlan[0].radio 	radioChannel:histogram
field count 1
field mean 3
field stddev -nan
field sum 3
field sqrsum 9
field min 3
field max 3
attr interpolationmode  sample-hold
attr source  radioChannelChanged
attr title  "Radio channel, histogram"
bin	-INF	0
bin	2	0
bin	3	1
bin	4	0
scalar scenarioPRJP1.node[97].wlan[0].radio 	transmissionState:count 	10312
attr interpolationmode  sample-hold
attr source  transmissionStateChanged
attr title  "Radio transmission state, count"
scalar scenarioPRJP1.node[97].wlan[0].radio 	receptionState:count 	30202
attr interpolationmode  sample-hold
attr source  receptionStateChanged
attr title  "Radio reception state, count"
scalar scenarioPRJP1.node[97].wlan[0].radio 	radioMode:count 	5158
attr interpolationmode  sample-hold
attr source  radioModeChanged
attr title  "Radio mode, count"
statistic scenarioPRJP1.node[97].wlan[0].radio 	symbolErrorRate:histogram
field count 0
field mean -nan
field stddev -nan
field sum 0
field sqrsum 0
field min -nan
field max -nan
attr source  symbolErrorRate
attr title  "Symbol error rate, histogram"
bin	-INF	0
bin	-0.5	0
bin	-0.46666666666667	0
bin	-0.43333333333333	0
bin	-0.4	0
bin	-0.36666666666667	0
bin	-0.33333333333333	0
bin	-0.3	0
bin	-0.26666666666667	0
bin	-0.23333333333333	0
bin	-0.2	0
bin	-0.16666666666667	0
bin	-0.13333333333333	0
bin	-0.1	0
bin	-0.066666666666667	0
bin	-0.033333333333333	0
bin	0	0
bin	0.033333333333333	0
bin	0.066666666666667	0
bin	0.1	0
bin	0.13333333333333	0
bin	0.16666666666667	0
bin	0.2	0
bin	0.23333333333333	0
bin	0.26666666666667	0
bin	0.3	0
bin	0.33333333333333	0
bin	0.36666666666667	0
bin	0.4	0
bin	0.43333333333333	0
bin	0.46666666666667	0
bin	0.5	0
statistic scenarioPRJP1.node[97].wlan[0].radio 	bitErrorRate:histogram
field count 0
field mean -nan
field stddev -nan
field sum 0
field sqrsum 0
field min -nan
field max -nan
attr source  bitErrorRate
attr title  "Bit error rate, histogram"
bin	-INF	0
bin	-0.5	0
bin	-0.46666666666667	0
bin	-0.43333333333333	0
bin	-0.4	0
bin	-0.36666666666667	0
bin	-0.33333333333333	0
bin	-0.3	0
bin	-0.26666666666667	0
bin	-0.23333333333333	0
bin	-0.2	0
bin	-0.16666666666667	0
bin	-0.13333333333333	0
bin	-0.1	0
bin	-0.066666666666667	0
bin	-0.033333333333333	0
bin	0	0
bin	0.033333333333333	0
bin	0.066666666666667	0
bin	0.1	0
bin	0.13333333333333	0
bin	0.16666666666667	0
bin	0.2	0
bin	0.23333333333333	0
bin	0.26666666666667	0
bin	0.3	0
bin	0.33333333333333	0
bin	0.36666666666667	0
bin	0.4	0
bin	0.43333333333333	0
bin	0.46666666666667	0
bin	0.5	0
statistic scenarioPRJP1.node[97].wlan[0].radio 	packetErrorRate:histogram
field count 12459
field mean 0.070008303947107
field stddev 0.2463208143487
field sum 872.23345887701
field sqrsum 816.93957423908
field min 0
field max 1
attr source  packetErrorRate
attr title  "Packet error rate, histogram"
bin	-INF	0
bin	-0.5	0
bin	-0.43333333333333	0
bin	-0.36666666666667	0
bin	-0.3	0
bin	-0.23333333333333	0
bin	-0.16666666666667	0
bin	-0.1	0
bin	-0.033333333333333	11348
bin	0.033333333333333	98
bin	0.1	46
bin	0.16666666666667	40
bin	0.23333333333333	23
bin	0.3	16
bin	0.36666666666667	24
bin	0.43333333333333	21
bin	0.5	12
bin	0.56666666666667	12
bin	0.63333333333333	10
bin	0.7	15
bin	0.76666666666667	13
bin	0.83333333333333	20
bin	0.9	12
bin	0.96666666666667	749
bin	1.0333333333333	0
bin	1.1	0
bin	1.1666666666667	0
bin	1.2333333333333	0
bin	1.3	0
bin	1.3666666666667	0
bin	1.4333333333333	0
bin	1.5	0
statistic scenarioPRJP1.node[97].wlan[0].radio 	minSNIR:histogram
field count 12459
field mean 19755.999521822
field stddev 104521.39318561
field sum 246139998.04238
field sqrsum 1.4096292379327e+14
field min 0.015980022893031
field max 753239.71923443
attr source  minSNIR
attr title  "Min SNIR, histogram"
bin	-INF	0
bin	-211.72243742128	0
bin	-183.27725883331	0
bin	-154.83208024534	0
bin	-126.38690165737	0
bin	-97.941723069396	0
bin	-69.496544481424	0
bin	-41.051365893452	0
bin	-12.60618730548	4307
bin	15.838991282492	1741
bin	44.284169870464	681
bin	72.729348458436	370
bin	101.17452704641	267
bin	129.61970563438	487
bin	158.06488422235	302
bin	186.51006281032	233
bin	214.9552413983	226
bin	243.40041998627	307
bin	271.84559857424	158
bin	300.29077716221	104
bin	328.73595575018	123
bin	357.18113433816	98
bin	385.62631292613	86
bin	414.0714915141	75
bin	442.51667010207	53
bin	470.96184869005	50
bin	499.40702727802	73
bin	527.85220586599	57
bin	556.29738445396	31
bin	584.74256304193	37
bin	613.18774162991	41
bin	641.63292021788	2552
scalar scenarioPRJP1.node[97].lo0.lo 	droppedPkBitError:count 	0
attr interpolationmode  none
attr source  dropPkBitError
attr title  "packets dropped/bit error, count"
scalar scenarioPRJP1.node[97].lo0.lo 	droppedPkBitError:sum(packetBytes) 	0
attr interpolationmode  none
attr source  dropPkBitError
attr title  "packets dropped/bit error, sum(packetBytes)"
scalar scenarioPRJP1.node[97].lo0.lo 	rcvdPkFromHL:count 	0
attr interpolationmode  none
attr source  packetReceivedFromUpper
attr title  "packets received from higher layer, count"
scalar scenarioPRJP1.node[97].lo0.lo 	rcvdPkFromHL:sum(packetBytes) 	0
attr interpolationmode  none
attr source  packetReceivedFromUpper
attr title  "packets received from higher layer, sum(packetBytes)"
scalar scenarioPRJP1.node[97].lo0.lo 	passedUpPk:count 	0
attr interpolationmode  none
attr source  packetSentToUpper
attr title  "packets passed to higher layer, count"
scalar scenarioPRJP1.node[97].lo0.lo 	passedUpPk:sum(packetBytes) 	0
attr interpolationmode  none
attr source  packetSentToUpper
attr title  "packets passed to higher layer, sum(packetBytes)"
scalar scenarioPRJP1.node[59].app 	"Total sent" 	362
scalar scenarioPRJP1.node[59].app 	"Total received" 	22
scalar scenarioPRJP1.node[59].app 	"Total deleted" 	3
scalar scenarioPRJP1.node[59].app 	dropPk:count 	3
attr interpolationmode  none
attr source  dropPk
attr title  "packets dropped, count"
scalar scenarioPRJP1.node[59].app 	dropPk:sum(packetBytes) 	1536
attr interpolationmode  none
attr source  dropPk
attr title  "packets dropped, sum(packetBytes)"
scalar scenarioPRJP1.node[59].app 	outOfOrderPk:count 	0
attr interpolationmode  none
attr source  outOfOrderPk
attr title  "packets received out of order, count"
scalar scenarioPRJP1.node[59].app 	outOfOrderPk:sum(packetBytes) 	0
attr interpolationmode  none
attr source  outOfOrderPk
attr title  "packets received out of order, sum(packetBytes)"
scalar scenarioPRJP1.node[59].app 	rcvdPk:count 	22
attr interpolationmode  none
attr source  rcvdPk
attr title  "packets received, count"
scalar scenarioPRJP1.node[59].app 	rcvdPk:sum(packetBytes) 	11264
attr interpolationmode  none
attr source  rcvdPk
attr title  "packets received, sum(packetBytes)"
statistic scenarioPRJP1.node[59].app 	endToEndDelay:histogram
field count 22
field mean 0.27059181212086
field stddev 0.78813365076993
field sum 5.953019866659
field sqrsum 14.655086114305
field min 0.000958260852
field max 3.300965636937
attr interpolationmode  none
attr source  messageAge(rcvdPk)
attr title  "delay, histogram"
attr unit  s
bin	-INF	0
bin	-1.6490454271905	0
bin	-1.4290449354515	0
bin	-1.2090444437125	0
bin	-0.9890439519735	0
bin	-0.7690434602345	0
bin	-0.5490429684955	0
bin	-0.3290424767565	0
bin	-0.1090419850175	19
bin	0.1109585067215	0
bin	0.3309589984605	0
bin	0.5509594901995	0
bin	0.7709599819385	1
bin	0.9909604736775	0
bin	1.2109609654165	0
bin	1.4309614571555	0
bin	1.6509619488945	1
bin	1.8709624406335	0
bin	2.0909629323725	0
bin	2.3109634241115	0
bin	2.5309639158505	0
bin	2.7509644075895	0
bin	2.9709648993285	0
bin	3.1909653910675	1
bin	3.4109658828065	0
bin	3.6309663745455	0
bin	3.8509668662845	0
bin	4.0709673580235	0
bin	4.2909678497625	0
bin	4.5109683415015	0
bin	4.7309688332405	0
bin	4.9509693249795	0
scalar scenarioPRJP1.node[59].app 	sentPk:count 	362
attr interpolationmode  none
attr source  sentPk
attr title  "packets sent, count"
scalar scenarioPRJP1.node[59].app 	sentPk:sum(packetBytes) 	185344
attr interpolationmode  none
attr source  sentPk
attr title  "packets sent, sum(packetBytes)"
scalar scenarioPRJP1.node[59].udp 	droppedPkBadChecksum:count 	0
attr interpolationmode  none
attr title  "packets dropped (checksum error), count"
scalar scenarioPRJP1.node[59].udp 	droppedPkWrongPort:count 	0
attr interpolationmode  none
attr title  "packets dropped (wrong port), count"
scalar scenarioPRJP1.node[59].udp 	passedUpPk:count 	25
attr interpolationmode  none
attr title  "packets passed up, count"
scalar scenarioPRJP1.node[59].udp 	rcvdPk:count 	25
attr interpolationmode  none
attr source  rcvdPk
attr title  "packets received, count"
scalar scenarioPRJP1.node[59].udp 	rcvdPk:sum(packetBytes) 	13000
attr interpolationmode  none
attr source  rcvdPk
attr title  "packets received, sum(packetBytes)"
scalar scenarioPRJP1.node[59].udp 	sentPk:count 	362
attr interpolationmode  none
attr source  sentPk
attr title  "packets sent, count"
scalar scenarioPRJP1.node[59].udp 	sentPk:sum(packetBytes) 	188240
attr interpolationmode  none
attr source  sentPk
attr title  "packets sent, sum(packetBytes)"
scalar scenarioPRJP1.node[59].networkLayer.arp 	failedARPResolution:count 	0
attr title  "ARP failed resolutions, count"
scalar scenarioPRJP1.node[59].networkLayer.arp 	completedARPResolution:count 	83
attr title  "ARP completed resolutions, count"
scalar scenarioPRJP1.node[59].networkLayer.arp 	initiatedARPResolution:count 	14
attr title  "ARP initiated resolutions, count"
scalar scenarioPRJP1.node[59].networkLayer.arp 	sentReply:count 	12
attr title  "ARP replies sent, count"
scalar scenarioPRJP1.node[59].networkLayer.arp 	sentReq:count 	21
attr title  "ARP request sent, count"
scalar scenarioPRJP1.node[59].mobility 	startTime 	5
scalar scenarioPRJP1.node[59].mobility 	totalTime 	154.6
scalar scenarioPRJP1.node[59].mobility 	stopTime 	159.7
scalar scenarioPRJP1.node[59].mobility 	minSpeed 	2.4790840934743e-13
scalar scenarioPRJP1.node[59].mobility 	maxSpeed 	18.602311989232
scalar scenarioPRJP1.node[59].mobility 	totalDistance 	1484.5208518948
scalar scenarioPRJP1.node[59].mobility 	totalCO2Emission 	462.66559572585
scalar scenarioPRJP1.node[59].wlan[0].mgmt 	dataQueueLen:max 	1
attr interpolationmode  sample-hold
attr title  "data queue length, max"
scalar scenarioPRJP1.node[59].wlan[0].mgmt 	dataQueueLen:timeavg 	0
attr interpolationmode  sample-hold
attr title  "data queue length, timeavg"
scalar scenarioPRJP1.node[59].wlan[0].mgmt 	dropPkByQueue:count 	0
attr interpolationmode  none
attr source  dropPkByQueue
attr title  "packets dropped by queue, count"
scalar scenarioPRJP1.node[59].wlan[0].mgmt 	dropPkByQueue:sum(packetBytes) 	0
attr interpolationmode  none
attr source  dropPkByQueue
attr title  "packets dropped by queue, sum(packetBytes)"
scalar scenarioPRJP1.node[59].wlan[0].mac 	"number of received packets" 	280
scalar scenarioPRJP1.node[59].wlan[0].mac 	"number of collisions" 	1264
scalar scenarioPRJP1.node[59].wlan[0].mac 	"number of internal collisions" 	0
scalar scenarioPRJP1.node[59].wlan[0].mac 	"number of retry for AC 0" 	402
scalar scenarioPRJP1.node[59].wlan[0].mac 	"number of retry for AC 1" 	0
scalar scenarioPRJP1.node[59].wlan[0].mac 	"number of retry for AC 2" 	0
scalar scenarioPRJP1.node[59].wlan[0].mac 	"number of retry for AC 3" 	0
scalar scenarioPRJP1.node[59].wlan[0].mac 	"sent and received bits" 	1611136
scalar scenarioPRJP1.node[59].wlan[0].mac 	"sent packet within AC 0" 	26
scalar scenarioPRJP1.node[59].wlan[0].mac 	"sent packet within AC 1" 	0
scalar scenarioPRJP1.node[59].wlan[0].mac 	"sent packet within AC 2" 	0
scalar scenarioPRJP1.node[59].wlan[0].mac 	"sent packet within AC 3" 	0
scalar scenarioPRJP1.node[59].wlan[0].mac 	"sent in TXOP " 	0
scalar scenarioPRJP1.node[59].wlan[0].mac 	"sentWithoutRetry AC 0" 	26
scalar scenarioPRJP1.node[59].wlan[0].mac 	"sentWithoutRetry AC 1" 	0
scalar scenarioPRJP1.node[59].wlan[0].mac 	"sentWithoutRetry AC 2" 	0
scalar scenarioPRJP1.node[59].wlan[0].mac 	"sentWithoutRetry AC 3" 	0
scalar scenarioPRJP1.node[59].wlan[0].mac 	"numGivenUp AC 0" 	67
scalar scenarioPRJP1.node[59].wlan[0].mac 	"numGivenUp AC 1" 	0
scalar scenarioPRJP1.node[59].wlan[0].mac 	"numGivenUp AC 2" 	0
scalar scenarioPRJP1.node[59].wlan[0].mac 	"numGivenUp AC 3" 	0
scalar scenarioPRJP1.node[59].wlan[0].mac 	"numDropped AC 0" 	0
scalar scenarioPRJP1.node[59].wlan[0].mac 	"numDropped AC 1" 	0
scalar scenarioPRJP1.node[59].wlan[0].mac 	"numDropped AC 2" 	0
scalar scenarioPRJP1.node[59].wlan[0].mac 	"numDropped AC 3" 	0
scalar scenarioPRJP1.node[59].wlan[0].mac 	rcvdPkFromLL:count 	17225
attr interpolationmode  none
attr source  packetReceivedFromLower
attr title  "packets received from lower layer, count"
scalar scenarioPRJP1.node[59].wlan[0].mac 	rcvdPkFromLL:sum(packetBytes) 	2341512
attr interpolationmode  none
attr source  packetReceivedFromLower
attr title  "packets received from lower layer, sum(packetBytes)"
scalar scenarioPRJP1.node[59].wlan[0].mac 	sentDownPk:count 	2963
attr interpolationmode  none
attr source  packetSentToLower
attr title  "packets sent to lower layer, count"
scalar scenarioPRJP1.node[59].wlan[0].mac 	sentDownPk:sum(packetBytes) 	371016
attr interpolationmode  none
attr source  packetSentToLower
attr title  "packets sent to lower layer, sum(packetBytes)"
scalar scenarioPRJP1.node[59].wlan[0].mac 	rcvdPkFromHL:count 	2281
attr interpolationmode  none
attr source  packetReceivedFromUpper
attr title  "packets received from higher layer, count"
scalar scenarioPRJP1.node[59].wlan[0].mac 	rcvdPkFromHL:sum(packetBytes) 	225064
attr interpolationmode  none
attr source  packetReceivedFromUpper
attr title  "packets received from higher layer, sum(packetBytes)"
scalar scenarioPRJP1.node[59].wlan[0].mac 	passedUpPk:count 	11221
attr interpolationmode  none
attr source  packetSentToUpper
attr title  "packets passed to higher layer, count"
scalar scenarioPRJP1.node[59].wlan[0].mac 	passedUpPk:sum(packetBytes) 	1011504
attr interpolationmode  none
attr source  packetSentToUpper
attr title  "packets passed to higher layer, sum(packetBytes)"
statistic scenarioPRJP1.node[59].wlan[0].radio 	radioChannel:histogram
field count 1
field mean 3
field stddev -nan
field sum 3
field sqrsum 9
field min 3
field max 3
attr interpolationmode  sample-hold
attr source  radioChannelChanged
attr title  "Radio channel, histogram"
bin	-INF	0
bin	2	0
bin	3	1
bin	4	0
scalar scenarioPRJP1.node[59].wlan[0].radio 	transmissionState:count 	11852
attr interpolationmode  sample-hold
attr source  transmissionStateChanged
attr title  "Radio transmission state, count"
scalar scenarioPRJP1.node[59].wlan[0].radio 	receptionState:count 	40730
attr interpolationmode  sample-hold
attr source  receptionStateChanged
attr title  "Radio reception state, count"
scalar scenarioPRJP1.node[59].wlan[0].radio 	radioMode:count 	5928
attr interpolationmode  sample-hold
attr source  radioModeChanged
attr title  "Radio mode, count"
statistic scenarioPRJP1.node[59].wlan[0].radio 	symbolErrorRate:histogram
field count 0
field mean -nan
field stddev -nan
field sum 0
field sqrsum 0
field min -nan
field max -nan
attr source  symbolErrorRate
attr title  "Symbol error rate, histogram"
bin	-INF	0
bin	-0.5	0
bin	-0.46666666666667	0
bin	-0.43333333333333	0
bin	-0.4	0
bin	-0.36666666666667	0
bin	-0.33333333333333	0
bin	-0.3	0
bin	-0.26666666666667	0
bin	-0.23333333333333	0
bin	-0.2	0
bin	-0.16666666666667	0
bin	-0.13333333333333	0
bin	-0.1	0
bin	-0.066666666666667	0
bin	-0.033333333333333	0
bin	0	0
bin	0.033333333333333	0
bin	0.066666666666667	0
bin	0.1	0
bin	0.13333333333333	0
bin	0.16666666666667	0
bin	0.2	0
bin	0.23333333333333	0
bin	0.26666666666667	0
bin	0.3	0
bin	0.33333333333333	0
bin	0.36666666666667	0
bin	0.4	0
bin	0.43333333333333	0
bin	0.46666666666667	0
bin	0.5	0
statistic scenarioPRJP1.node[59].wlan[0].radio 	bitErrorRate:histogram
field count 0
field mean -nan
field stddev -nan
field sum 0
field sqrsum 0
field min -nan
field max -nan
attr source  bitErrorRate
attr title  "Bit error rate, histogram"
bin	-INF	0
bin	-0.5	0
bin	-0.46666666666667	0
bin	-0.43333333333333	0
bin	-0.4	0
bin	-0.36666666666667	0
bin	-0.33333333333333	0
bin	-0.3	0
bin	-0.26666666666667	0
bin	-0.23333333333333	0
bin	-0.2	0
bin	-0.16666666666667	0
bin	-0.13333333333333	0
bin	-0.1	0
bin	-0.066666666666667	0
bin	-0.033333333333333	0
bin	0	0
bin	0.033333333333333	0
bin	0.066666666666667	0
bin	0.1	0
bin	0.13333333333333	0
bin	0.16666666666667	0
bin	0.2	0
bin	0.23333333333333	0
bin	0.26666666666667	0
bin	0.3	0
bin	0.33333333333333	0
bin	0.36666666666667	0
bin	0.4	0
bin	0.43333333333333	0
bin	0.46666666666667	0
bin	0.5	0
statistic scenarioPRJP1.node[59].wlan[0].radio 	packetErrorRate:histogram
field count 17225
field mean 0.057399036899702
field stddev 0.225432577464
field sum 988.69841059737
field sqrsum 932.07138097158
field min 0
field max 1
attr source  packetErrorRate
attr title  "Packet error rate, histogram"
bin	-INF	0
bin	-0.5	0
bin	-0.43333333333333	0
bin	-0.36666666666667	0
bin	-0.3	0
bin	-0.23333333333333	0
bin	-0.16666666666667	0
bin	-0.1	0
bin	-0.033333333333333	15988
bin	0.033333333333333	106
bin	0.1	49
bin	0.16666666666667	32
bin	0.23333333333333	25
bin	0.3	32
bin	0.36666666666667	18
bin	0.43333333333333	16
bin	0.5	10
bin	0.56666666666667	15
bin	0.63333333333333	11
bin	0.7	15
bin	0.76666666666667	11
bin	0.83333333333333	16
bin	0.9	19
bin	0.96666666666667	862
bin	1.0333333333333	0
bin	1.1	0
bin	1.1666666666667	0
bin	1.2333333333333	0
bin	1.3	0
bin	1.3666666666667	0
bin	1.4333333333333	0
bin	1.5	0
statistic scenarioPRJP1.node[59].wlan[0].radio 	minSNIR:histogram
field count 17225
field mean 3976.2994485083
field stddev 39615.775727856
field sum 68491758.000555
field sqrsum 27303856180181
field min 0.0056681490712454
field max 753239.71674086
attr source  minSNIR
attr title  "Min SNIR, histogram"
bin	-INF	0
bin	-2553.0661789721	0
bin	-2212.5285664455	0
bin	-1871.9909539189	0
bin	-1531.4533413924	0
bin	-1190.9157288658	0
bin	-850.37811633922	0
bin	-509.84050381264	0
bin	-169.30289128607	11306
bin	171.23472124051	2754
bin	511.77233376708	805
bin	852.30994629366	365
bin	1192.8475588202	232
bin	1533.3851713468	168
bin	1873.9227838734	110
bin	2214.4603964	88
bin	2554.9980089265	95
bin	2895.5356214531	85
bin	3236.0732339797	80
bin	3576.6108465063	58
bin	3917.1484590328	70
bin	4257.6860715594	33
bin	4598.223684086	51
bin	4938.7612966126	27
bin	5279.2989091391	35
bin	5619.8365216657	26
bin	5960.3741341923	29
bin	6300.9117467189	42
bin	6641.4493592454	27
bin	6981.986971772	16
bin	7322.5245842986	13
bin	7663.0621968252	710
scalar scenarioPRJP1.node[59].lo0.lo 	droppedPkBitError:count 	0
attr interpolationmode  none
attr source  dropPkBitError
attr title  "packets dropped/bit error, count"
scalar scenarioPRJP1.node[59].lo0.lo 	droppedPkBitError:sum(packetBytes) 	0
attr interpolationmode  none
attr source  dropPkBitError
attr title  "packets dropped/bit error, sum(packetBytes)"
scalar scenarioPRJP1.node[59].lo0.lo 	rcvdPkFromHL:count 	0
attr interpolationmode  none
attr source  packetReceivedFromUpper
attr title  "packets received from higher layer, count"
scalar scenarioPRJP1.node[59].lo0.lo 	rcvdPkFromHL:sum(packetBytes) 	0
attr interpolationmode  none
attr source  packetReceivedFromUpper
attr title  "packets received from higher layer, sum(packetBytes)"
scalar scenarioPRJP1.node[59].lo0.lo 	passedUpPk:count 	0
attr interpolationmode  none
attr source  packetSentToUpper
attr title  "packets passed to higher layer, count"
scalar scenarioPRJP1.node[59].lo0.lo 	passedUpPk:sum(packetBytes) 	0
attr interpolationmode  none
attr source  packetSentToUpper
attr title  "packets passed to higher layer, sum(packetBytes)"
scalar scenarioPRJP1.node[57].app 	"Total sent" 	374
scalar scenarioPRJP1.node[57].app 	"Total received" 	30
scalar scenarioPRJP1.node[57].app 	"Total deleted" 	2
scalar scenarioPRJP1.node[57].app 	dropPk:count 	2
attr interpolationmode  none
attr source  dropPk
attr title  "packets dropped, count"
scalar scenarioPRJP1.node[57].app 	dropPk:sum(packetBytes) 	1024
attr interpolationmode  none
attr source  dropPk
attr title  "packets dropped, sum(packetBytes)"
scalar scenarioPRJP1.node[57].app 	outOfOrderPk:count 	0
attr interpolationmode  none
attr source  outOfOrderPk
attr title  "packets received out of order, count"
scalar scenarioPRJP1.node[57].app 	outOfOrderPk:sum(packetBytes) 	0
attr interpolationmode  none
attr source  outOfOrderPk
attr title  "packets received out of order, sum(packetBytes)"
scalar scenarioPRJP1.node[57].app 	rcvdPk:count 	30
attr interpolationmode  none
attr source  rcvdPk
attr title  "packets received, count"
scalar scenarioPRJP1.node[57].app 	rcvdPk:sum(packetBytes) 	15360
attr interpolationmode  none
attr source  rcvdPk
attr title  "packets received, sum(packetBytes)"
statistic scenarioPRJP1.node[57].app 	endToEndDelay:histogram
field count 30
field mean 2.3222983263482
field stddev 5.39862869623
field sum 69.668949790446
field sqrsum 1007.0026476898
field min 0.000984064761
field max 19.128117152168
attr interpolationmode  none
attr source  messageAge(rcvdPk)
attr title  "delay, histogram"
attr unit  s
bin	-INF	0
bin	-9.5625824789425	0
bin	-8.2874402731154	0
bin	-7.0122980672882	0
bin	-5.7371558614611	0
bin	-4.462013655634	0
bin	-3.1868714498068	0
bin	-1.9117292439797	0
bin	-0.63658703815257	20
bin	0.63855516767457	5
bin	1.9136973735017	1
bin	3.1888395793288	0
bin	4.463981785156	0
bin	5.7391239909831	0
bin	7.0142661968102	0
bin	8.2894084026374	0
bin	9.5645506084645	0
bin	10.839692814292	0
bin	12.114835020119	1
bin	13.389977225946	1
bin	14.665119431773	0
bin	15.9402616376	1
bin	17.215403843427	0
bin	18.490546049254	1
bin	19.765688255082	0
bin	21.040830460909	0
bin	22.315972666736	0
bin	23.591114872563	0
bin	24.86625707839	0
bin	26.141399284217	0
bin	27.416541490044	0
bin	28.691683695871	0
scalar scenarioPRJP1.node[57].app 	sentPk:count 	374
attr interpolationmode  none
attr source  sentPk
attr title  "packets sent, count"
scalar scenarioPRJP1.node[57].app 	sentPk:sum(packetBytes) 	191488
attr interpolationmode  none
attr source  sentPk
attr title  "packets sent, sum(packetBytes)"
scalar scenarioPRJP1.node[57].udp 	droppedPkBadChecksum:count 	0
attr interpolationmode  none
attr title  "packets dropped (checksum error), count"
scalar scenarioPRJP1.node[57].udp 	droppedPkWrongPort:count 	0
attr interpolationmode  none
attr title  "packets dropped (wrong port), count"
scalar scenarioPRJP1.node[57].udp 	passedUpPk:count 	32
attr interpolationmode  none
attr title  "packets passed up, count"
scalar scenarioPRJP1.node[57].udp 	rcvdPk:count 	32
attr interpolationmode  none
attr source  rcvdPk
attr title  "packets received, count"
scalar scenarioPRJP1.node[57].udp 	rcvdPk:sum(packetBytes) 	16640
attr interpolationmode  none
attr source  rcvdPk
attr title  "packets received, sum(packetBytes)"
scalar scenarioPRJP1.node[57].udp 	sentPk:count 	374
attr interpolationmode  none
attr source  sentPk
attr title  "packets sent, count"
scalar scenarioPRJP1.node[57].udp 	sentPk:sum(packetBytes) 	194480
attr interpolationmode  none
attr source  sentPk
attr title  "packets sent, sum(packetBytes)"
scalar scenarioPRJP1.node[57].networkLayer.arp 	failedARPResolution:count 	0
attr title  "ARP failed resolutions, count"
scalar scenarioPRJP1.node[57].networkLayer.arp 	completedARPResolution:count 	93
attr title  "ARP completed resolutions, count"
scalar scenarioPRJP1.node[57].networkLayer.arp 	initiatedARPResolution:count 	11
attr title  "ARP initiated resolutions, count"
scalar scenarioPRJP1.node[57].networkLayer.arp 	sentReply:count 	7
attr title  "ARP replies sent, count"
scalar scenarioPRJP1.node[57].networkLayer.arp 	sentReq:count 	14
attr title  "ARP request sent, count"
scalar scenarioPRJP1.node[57].mobility 	startTime 	4.9
scalar scenarioPRJP1.node[57].mobility 	totalTime 	155.2
scalar scenarioPRJP1.node[57].mobility 	stopTime 	160.2
scalar scenarioPRJP1.node[57].mobility 	minSpeed 	2.4761073684044e-13
scalar scenarioPRJP1.node[57].mobility 	maxSpeed 	18.712586740834
scalar scenarioPRJP1.node[57].mobility 	totalDistance 	1449.4227992433
scalar scenarioPRJP1.node[57].mobility 	totalCO2Emission 	427.50746177778
scalar scenarioPRJP1.node[57].wlan[0].mgmt 	dataQueueLen:max 	0
attr interpolationmode  sample-hold
attr title  "data queue length, max"
scalar scenarioPRJP1.node[57].wlan[0].mgmt 	dataQueueLen:timeavg 	0
attr interpolationmode  sample-hold
attr title  "data queue length, timeavg"
scalar scenarioPRJP1.node[57].wlan[0].mgmt 	dropPkByQueue:count 	0
attr interpolationmode  none
attr source  dropPkByQueue
attr title  "packets dropped by queue, count"
scalar scenarioPRJP1.node[57].wlan[0].mgmt 	dropPkByQueue:sum(packetBytes) 	0
attr interpolationmode  none
attr source  dropPkByQueue
attr title  "packets dropped by queue, sum(packetBytes)"
scalar scenarioPRJP1.node[57].wlan[0].mac 	"number of received packets" 	348
scalar scenarioPRJP1.node[57].wlan[0].mac 	"number of collisions" 	1692
scalar scenarioPRJP1.node[57].wlan[0].mac 	"number of internal collisions" 	0
scalar scenarioPRJP1.node[57].wlan[0].mac 	"number of retry for AC 0" 	383
scalar scenarioPRJP1.node[57].wlan[0].mac 	"number of retry for AC 1" 	0
scalar scenarioPRJP1.node[57].wlan[0].mac 	"number of retry for AC 2" 	0
scalar scenarioPRJP1.node[57].wlan[0].mac 	"number of retry for AC 3" 	0
scalar scenarioPRJP1.node[57].wlan[0].mac 	"sent and received bits" 	1473280
scalar scenarioPRJP1.node[57].wlan[0].mac 	"sent packet within AC 0" 	46
scalar scenarioPRJP1.node[57].wlan[0].mac 	"sent packet within AC 1" 	0
scalar scenarioPRJP1.node[57].wlan[0].mac 	"sent packet within AC 2" 	0
scalar scenarioPRJP1.node[57].wlan[0].mac 	"sent packet within AC 3" 	0
scalar scenarioPRJP1.node[57].wlan[0].mac 	"sent in TXOP " 	0
scalar scenarioPRJP1.node[57].wlan[0].mac 	"sentWithoutRetry AC 0" 	41
scalar scenarioPRJP1.node[57].wlan[0].mac 	"sentWithoutRetry AC 1" 	0
scalar scenarioPRJP1.node[57].wlan[0].mac 	"sentWithoutRetry AC 2" 	0
scalar scenarioPRJP1.node[57].wlan[0].mac 	"sentWithoutRetry AC 3" 	0
scalar scenarioPRJP1.node[57].wlan[0].mac 	"numGivenUp AC 0" 	63
scalar scenarioPRJP1.node[57].wlan[0].mac 	"numGivenUp AC 1" 	0
scalar scenarioPRJP1.node[57].wlan[0].mac 	"numGivenUp AC 2" 	0
scalar scenarioPRJP1.node[57].wlan[0].mac 	"numGivenUp AC 3" 	0
scalar scenarioPRJP1.node[57].wlan[0].mac 	"numDropped AC 0" 	0
scalar scenarioPRJP1.node[57].wlan[0].mac 	"numDropped AC 1" 	0
scalar scenarioPRJP1.node[57].wlan[0].mac 	"numDropped AC 2" 	0
scalar scenarioPRJP1.node[57].wlan[0].mac 	"numDropped AC 3" 	0
scalar scenarioPRJP1.node[57].wlan[0].mac 	rcvdPkFromLL:count 	18883
attr interpolationmode  none
attr source  packetReceivedFromLower
attr title  "packets received from lower layer, count"
scalar scenarioPRJP1.node[57].wlan[0].mac 	rcvdPkFromLL:sum(packetBytes) 	2574928
attr interpolationmode  none
attr source  packetReceivedFromLower
attr title  "packets received from lower layer, sum(packetBytes)"
scalar scenarioPRJP1.node[57].wlan[0].mac 	sentDownPk:count 	2691
attr interpolationmode  none
attr source  packetSentToLower
attr title  "packets sent to lower layer, count"
scalar scenarioPRJP1.node[57].wlan[0].mac 	sentDownPk:sum(packetBytes) 	381600
attr interpolationmode  none
attr source  packetSentToLower
attr title  "packets sent to lower layer, sum(packetBytes)"
scalar scenarioPRJP1.node[57].wlan[0].mac 	rcvdPkFromHL:count 	1960
attr interpolationmode  none
attr source  packetReceivedFromUpper
attr title  "packets received from higher layer, count"
scalar scenarioPRJP1.node[57].wlan[0].mac 	rcvdPkFromHL:sum(packetBytes) 	211472
attr interpolationmode  none
attr source  packetReceivedFromUpper
attr title  "packets received from higher layer, sum(packetBytes)"
scalar scenarioPRJP1.node[57].wlan[0].mac 	passedUpPk:count 	11925
attr interpolationmode  none
attr source  packetSentToUpper
attr title  "packets passed to higher layer, count"
scalar scenarioPRJP1.node[57].wlan[0].mac 	passedUpPk:sum(packetBytes) 	1071976
attr interpolationmode  none
attr source  packetSentToUpper
attr title  "packets passed to higher layer, sum(packetBytes)"
statistic scenarioPRJP1.node[57].wlan[0].radio 	radioChannel:histogram
field count 1
field mean 3
field stddev -nan
field sum 3
field sqrsum 9
field min 3
field max 3
attr interpolationmode  sample-hold
attr source  radioChannelChanged
attr title  "Radio channel, histogram"
bin	-INF	0
bin	2	0
bin	3	1
bin	4	0
scalar scenarioPRJP1.node[57].wlan[0].radio 	transmissionState:count 	10764
attr interpolationmode  sample-hold
attr source  transmissionStateChanged
attr title  "Radio transmission state, count"
scalar scenarioPRJP1.node[57].wlan[0].radio 	receptionState:count 	43492
attr interpolationmode  sample-hold
attr source  receptionStateChanged
attr title  "Radio reception state, count"
scalar scenarioPRJP1.node[57].wlan[0].radio 	radioMode:count 	5384
attr interpolationmode  sample-hold
attr source  radioModeChanged
attr title  "Radio mode, count"
statistic scenarioPRJP1.node[57].wlan[0].radio 	symbolErrorRate:histogram
field count 0
field mean -nan
field stddev -nan
field sum 0
field sqrsum 0
field min -nan
field max -nan
attr source  symbolErrorRate
attr title  "Symbol error rate, histogram"
bin	-INF	0
bin	-0.5	0
bin	-0.46666666666667	0
bin	-0.43333333333333	0
bin	-0.4	0
bin	-0.36666666666667	0
bin	-0.33333333333333	0
bin	-0.3	0
bin	-0.26666666666667	0
bin	-0.23333333333333	0
bin	-0.2	0
bin	-0.16666666666667	0
bin	-0.13333333333333	0
bin	-0.1	0
bin	-0.066666666666667	0
bin	-0.033333333333333	0
bin	0	0
bin	0.033333333333333	0
bin	0.066666666666667	0
bin	0.1	0
bin	0.13333333333333	0
bin	0.16666666666667	0
bin	0.2	0
bin	0.23333333333333	0
bin	0.26666666666667	0
bin	0.3	0
bin	0.33333333333333	0
bin	0.36666666666667	0
bin	0.4	0
bin	0.43333333333333	0
bin	0.46666666666667	0
bin	0.5	0
statistic scenarioPRJP1.node[57].wlan[0].radio 	bitErrorRate:histogram
field count 0
field mean -nan
field stddev -nan
field sum 0
field sqrsum 0
field min -nan
field max -nan
attr source  bitErrorRate
attr title  "Bit error rate, histogram"
bin	-INF	0
bin	-0.5	0
bin	-0.46666666666667	0
bin	-0.43333333333333	0
bin	-0.4	0
bin	-0.36666666666667	0
bin	-0.33333333333333	0
bin	-0.3	0
bin	-0.26666666666667	0
bin	-0.23333333333333	0
bin	-0.2	0
bin	-0.16666666666667	0
bin	-0.13333333333333	0
bin	-0.1	0
bin	-0.066666666666667	0
bin	-0.033333333333333	0
bin	0	0
bin	0.033333333333333	0
bin	0.066666666666667	0
bin	0.1	0
bin	0.13333333333333	0
bin	0.16666666666667	0
bin	0.2	0
bin	0.23333333333333	0
bin	0.26666666666667	0
bin	0.3	0
bin	0.33333333333333	0
bin	0.36666666666667	0
bin	0.4	0
bin	0.43333333333333	0
bin	0.46666666666667	0
bin	0.5	0
statistic scenarioPRJP1.node[57].wlan[0].radio 	packetErrorRate:histogram
field count 18883
field mean 0.072081132826342
field stddev 0.2513869126723
field sum 1361.1080311598
field sqrsum 1291.3653713565
field min 0
field max 1
attr source  packetErrorRate
attr title  "Packet error rate, histogram"
bin	-INF	0
bin	-0.49969991080678	0
bin	-0.43307325603254	0
bin	-0.3664466012583	0
bin	-0.29981994648407	0
bin	-0.23319329170983	0
bin	-0.16656663693559	0
bin	-0.099939982161355	0
bin	-0.033313327387118	17231
bin	0.033313327387118	117
bin	0.099939982161355	66
bin	0.16656663693559	44
bin	0.23319329170983	24
bin	0.29981994648407	27
bin	0.3664466012583	18
bin	0.43307325603254	17
bin	0.49969991080678	22
bin	0.56632656558101	13
bin	0.63295322035525	19
bin	0.69957987512949	19
bin	0.76620652990372	19
bin	0.83283318467796	28
bin	0.8994598394522	34
bin	0.96608649422643	1185
bin	1.0327131490007	0
bin	1.0993398037749	0
bin	1.1659664585491	0
bin	1.2325931133234	0
bin	1.2992197680976	0
bin	1.3658464228719	0
bin	1.4324730776461	0
bin	1.4990997324203	0
statistic scenarioPRJP1.node[57].wlan[0].radio 	minSNIR:histogram
field count 18883
field mean 5816.0097343412
field stddev 27838.657433196
field sum 109823711.81356
field sqrsum 15272112962917
field min 0.00087531913226606
field max 723767.06409785
attr source  minSNIR
attr title  "Min SNIR, histogram"
bin	-INF	0
bin	-335.81607241639	0
bin	-290.83113009338	0
bin	-245.84618777036	0
bin	-200.86124544735	0
bin	-155.87630312434	0
bin	-110.89136080133	0
bin	-65.906418478317	0
bin	-20.921476155305	6782
bin	24.063466167707	2425
bin	69.048408490719	950
bin	114.03335081373	943
bin	159.01829313674	954
bin	204.00323545976	626
bin	248.98817778277	428
bin	293.97312010578	329
bin	338.95806242879	245
bin	383.9430047518	181
bin	428.92794707481	134
bin	473.91288939783	121
bin	518.89783172084	100
bin	563.88277404385	85
bin	608.86771636686	70
bin	653.85265868987	76
bin	698.83760101289	68
bin	743.8225433359	66
bin	788.80748565891	69
bin	833.79242798192	67
bin	878.77737030493	47
bin	923.76231262795	58
bin	968.74725495096	38
bin	1013.732197274	4021
scalar scenarioPRJP1.node[57].lo0.lo 	droppedPkBitError:count 	0
attr interpolationmode  none
attr source  dropPkBitError
attr title  "packets dropped/bit error, count"
scalar scenarioPRJP1.node[57].lo0.lo 	droppedPkBitError:sum(packetBytes) 	0
attr interpolationmode  none
attr source  dropPkBitError
attr title  "packets dropped/bit error, sum(packetBytes)"
scalar scenarioPRJP1.node[57].lo0.lo 	rcvdPkFromHL:count 	0
attr interpolationmode  none
attr source  packetReceivedFromUpper
attr title  "packets received from higher layer, count"
scalar scenarioPRJP1.node[57].lo0.lo 	rcvdPkFromHL:sum(packetBytes) 	0
attr interpolationmode  none
attr source  packetReceivedFromUpper
attr title  "packets received from higher layer, sum(packetBytes)"
scalar scenarioPRJP1.node[57].lo0.lo 	passedUpPk:count 	0
attr interpolationmode  none
attr source  packetSentToUpper
attr title  "packets passed to higher layer, count"
scalar scenarioPRJP1.node[57].lo0.lo 	passedUpPk:sum(packetBytes) 	0
attr interpolationmode  none
attr source  packetSentToUpper
attr title  "packets passed to higher layer, sum(packetBytes)"
scalar scenarioPRJP1.node[61].app 	"Total sent" 	376
scalar scenarioPRJP1.node[61].app 	"Total received" 	17
scalar scenarioPRJP1.node[61].app 	"Total deleted" 	0
scalar scenarioPRJP1.node[61].app 	dropPk:count 	0
attr interpolationmode  none
attr source  dropPk
attr title  "packets dropped, count"
scalar scenarioPRJP1.node[61].app 	dropPk:sum(packetBytes) 	0
attr interpolationmode  none
attr source  dropPk
attr title  "packets dropped, sum(packetBytes)"
scalar scenarioPRJP1.node[61].app 	outOfOrderPk:count 	0
attr interpolationmode  none
attr source  outOfOrderPk
attr title  "packets received out of order, count"
scalar scenarioPRJP1.node[61].app 	outOfOrderPk:sum(packetBytes) 	0
attr interpolationmode  none
attr source  outOfOrderPk
attr title  "packets received out of order, sum(packetBytes)"
scalar scenarioPRJP1.node[61].app 	rcvdPk:count 	17
attr interpolationmode  none
attr source  rcvdPk
attr title  "packets received, count"
scalar scenarioPRJP1.node[61].app 	rcvdPk:sum(packetBytes) 	8704
attr interpolationmode  none
attr source  rcvdPk
attr title  "packets received, sum(packetBytes)"
statistic scenarioPRJP1.node[61].app 	endToEndDelay:histogram
field count 17
field mean 1.5912144290986
field stddev 3.2059243143212
field sum 27.050645294677
field sqrsum 207.49058845582
field min 0.000945699631
field max 10.463107301964
attr interpolationmode  none
attr source  messageAge(rcvdPk)
attr title  "delay, histogram"
attr unit  s
bin	-INF	0
bin	-5.2301351015355	0
bin	-4.53265766138	0
bin	-3.8351802212244	0
bin	-3.1377027810689	0
bin	-2.4402253409134	0
bin	-1.7427479007578	0
bin	-1.0452704606023	0
bin	-0.34779302044677	13
bin	0.34968441970877	0
bin	1.0471618598643	0
bin	1.7446393000198	0
bin	2.4421167401754	0
bin	3.1395941803309	1
bin	3.8370716204864	0
bin	4.534549060642	0
bin	5.2320265007975	0
bin	5.929503940953	1
bin	6.6269813811086	1
bin	7.3244588212641	0
bin	8.0219362614196	0
bin	8.7194137015752	0
bin	9.4168911417307	0
bin	10.114368581886	1
bin	10.811846022042	0
bin	11.509323462197	0
bin	12.206800902353	0
bin	12.904278342508	0
bin	13.601755782664	0
bin	14.299233222819	0
bin	14.996710662975	0
bin	15.694188103131	0
scalar scenarioPRJP1.node[61].app 	sentPk:count 	376
attr interpolationmode  none
attr source  sentPk
attr title  "packets sent, count"
scalar scenarioPRJP1.node[61].app 	sentPk:sum(packetBytes) 	192512
attr interpolationmode  none
attr source  sentPk
attr title  "packets sent, sum(packetBytes)"
scalar scenarioPRJP1.node[61].udp 	droppedPkBadChecksum:count 	0
attr interpolationmode  none
attr title  "packets dropped (checksum error), count"
scalar scenarioPRJP1.node[61].udp 	droppedPkWrongPort:count 	0
attr interpolationmode  none
attr title  "packets dropped (wrong port), count"
scalar scenarioPRJP1.node[61].udp 	passedUpPk:count 	17
attr interpolationmode  none
attr title  "packets passed up, count"
scalar scenarioPRJP1.node[61].udp 	rcvdPk:count 	17
attr interpolationmode  none
attr source  rcvdPk
attr title  "packets received, count"
scalar scenarioPRJP1.node[61].udp 	rcvdPk:sum(packetBytes) 	8840
attr interpolationmode  none
attr source  rcvdPk
attr title  "packets received, sum(packetBytes)"
scalar scenarioPRJP1.node[61].udp 	sentPk:count 	376
attr interpolationmode  none
attr source  sentPk
attr title  "packets sent, count"
scalar scenarioPRJP1.node[61].udp 	sentPk:sum(packetBytes) 	195520
attr interpolationmode  none
attr source  sentPk
attr title  "packets sent, sum(packetBytes)"
scalar scenarioPRJP1.node[61].networkLayer.arp 	failedARPResolution:count 	2
attr title  "ARP failed resolutions, count"
scalar scenarioPRJP1.node[61].networkLayer.arp 	completedARPResolution:count 	125
attr title  "ARP completed resolutions, count"
scalar scenarioPRJP1.node[61].networkLayer.arp 	initiatedARPResolution:count 	20
attr title  "ARP initiated resolutions, count"
scalar scenarioPRJP1.node[61].networkLayer.arp 	sentReply:count 	7
attr title  "ARP replies sent, count"
scalar scenarioPRJP1.node[61].networkLayer.arp 	sentReq:count 	29
attr title  "ARP request sent, count"
scalar scenarioPRJP1.node[61].mobility 	startTime 	7.3
scalar scenarioPRJP1.node[61].mobility 	totalTime 	154.2
scalar scenarioPRJP1.node[61].mobility 	stopTime 	161.6
scalar scenarioPRJP1.node[61].mobility 	minSpeed 	2.475754742908e-13
scalar scenarioPRJP1.node[61].mobility 	maxSpeed 	16.505300519812
scalar scenarioPRJP1.node[61].mobility 	totalDistance 	1484.0635477154
scalar scenarioPRJP1.node[61].mobility 	totalCO2Emission 	426.05314249313
scalar scenarioPRJP1.node[61].wlan[0].mgmt 	dataQueueLen:max 	0
attr interpolationmode  sample-hold
attr title  "data queue length, max"
scalar scenarioPRJP1.node[61].wlan[0].mgmt 	dataQueueLen:timeavg 	0
attr interpolationmode  sample-hold
attr title  "data queue length, timeavg"
scalar scenarioPRJP1.node[61].wlan[0].mgmt 	dropPkByQueue:count 	0
attr interpolationmode  none
attr source  dropPkByQueue
attr title  "packets dropped by queue, count"
scalar scenarioPRJP1.node[61].wlan[0].mgmt 	dropPkByQueue:sum(packetBytes) 	0
attr interpolationmode  none
attr source  dropPkByQueue
attr title  "packets dropped by queue, sum(packetBytes)"
scalar scenarioPRJP1.node[61].wlan[0].mac 	"number of received packets" 	323
scalar scenarioPRJP1.node[61].wlan[0].mac 	"number of collisions" 	1438
scalar scenarioPRJP1.node[61].wlan[0].mac 	"number of internal collisions" 	0
scalar scenarioPRJP1.node[61].wlan[0].mac 	"number of retry for AC 0" 	421
scalar scenarioPRJP1.node[61].wlan[0].mac 	"number of retry for AC 1" 	0
scalar scenarioPRJP1.node[61].wlan[0].mac 	"number of retry for AC 2" 	0
scalar scenarioPRJP1.node[61].wlan[0].mac 	"number of retry for AC 3" 	0
scalar scenarioPRJP1.node[61].wlan[0].mac 	"sent and received bits" 	1685312
scalar scenarioPRJP1.node[61].wlan[0].mac 	"sent packet within AC 0" 	38
scalar scenarioPRJP1.node[61].wlan[0].mac 	"sent packet within AC 1" 	0
scalar scenarioPRJP1.node[61].wlan[0].mac 	"sent packet within AC 2" 	0
scalar scenarioPRJP1.node[61].wlan[0].mac 	"sent packet within AC 3" 	0
scalar scenarioPRJP1.node[61].wlan[0].mac 	"sent in TXOP " 	0
scalar scenarioPRJP1.node[61].wlan[0].mac 	"sentWithoutRetry AC 0" 	34
scalar scenarioPRJP1.node[61].wlan[0].mac 	"sentWithoutRetry AC 1" 	0
scalar scenarioPRJP1.node[61].wlan[0].mac 	"sentWithoutRetry AC 2" 	0
scalar scenarioPRJP1.node[61].wlan[0].mac 	"sentWithoutRetry AC 3" 	0
scalar scenarioPRJP1.node[61].wlan[0].mac 	"numGivenUp AC 0" 	69
scalar scenarioPRJP1.node[61].wlan[0].mac 	"numGivenUp AC 1" 	0
scalar scenarioPRJP1.node[61].wlan[0].mac 	"numGivenUp AC 2" 	0
scalar scenarioPRJP1.node[61].wlan[0].mac 	"numGivenUp AC 3" 	0
scalar scenarioPRJP1.node[61].wlan[0].mac 	"numDropped AC 0" 	0
scalar scenarioPRJP1.node[61].wlan[0].mac 	"numDropped AC 1" 	0
scalar scenarioPRJP1.node[61].wlan[0].mac 	"numDropped AC 2" 	0
scalar scenarioPRJP1.node[61].wlan[0].mac 	"numDropped AC 3" 	0
scalar scenarioPRJP1.node[61].wlan[0].mac 	rcvdPkFromLL:count 	17423
attr interpolationmode  none
attr source  packetReceivedFromLower
attr title  "packets received from lower layer, count"
scalar scenarioPRJP1.node[61].wlan[0].mac 	rcvdPkFromLL:sum(packetBytes) 	2354178
attr interpolationmode  none
attr source  packetReceivedFromLower
attr title  "packets received from lower layer, sum(packetBytes)"
scalar scenarioPRJP1.node[61].wlan[0].mac 	sentDownPk:count 	3061
attr interpolationmode  none
attr source  packetSentToLower
attr title  "packets sent to lower layer, count"
scalar scenarioPRJP1.node[61].wlan[0].mac 	sentDownPk:sum(packetBytes) 	396850
attr interpolationmode  none
attr source  packetSentToLower
attr title  "packets sent to lower layer, sum(packetBytes)"
scalar scenarioPRJP1.node[61].wlan[0].mac 	rcvdPkFromHL:count 	2317
attr interpolationmode  none
attr source  packetReceivedFromUpper
attr title  "packets received from higher layer, count"
scalar scenarioPRJP1.node[61].wlan[0].mac 	rcvdPkFromHL:sum(packetBytes) 	236040
attr interpolationmode  none
attr source  packetReceivedFromUpper
attr title  "packets received from higher layer, sum(packetBytes)"
scalar scenarioPRJP1.node[61].wlan[0].mac 	passedUpPk:count 	11759
attr interpolationmode  none
attr source  packetSentToUpper
attr title  "packets passed to higher layer, count"
scalar scenarioPRJP1.node[61].wlan[0].mac 	passedUpPk:sum(packetBytes) 	1058448
attr interpolationmode  none
attr source  packetSentToUpper
attr title  "packets passed to higher layer, sum(packetBytes)"
statistic scenarioPRJP1.node[61].wlan[0].radio 	radioChannel:histogram
field count 1
field mean 3
field stddev -nan
field sum 3
field sqrsum 9
field min 3
field max 3
attr interpolationmode  sample-hold
attr source  radioChannelChanged
attr title  "Radio channel, histogram"
bin	-INF	0
bin	2	0
bin	3	1
bin	4	0
scalar scenarioPRJP1.node[61].wlan[0].radio 	transmissionState:count 	12244
attr interpolationmode  sample-hold
attr source  transmissionStateChanged
attr title  "Radio transmission state, count"
scalar scenarioPRJP1.node[61].wlan[0].radio 	receptionState:count 	41250
attr interpolationmode  sample-hold
attr source  receptionStateChanged
attr title  "Radio reception state, count"
scalar scenarioPRJP1.node[61].wlan[0].radio 	radioMode:count 	6124
attr interpolationmode  sample-hold
attr source  radioModeChanged
attr title  "Radio mode, count"
statistic scenarioPRJP1.node[61].wlan[0].radio 	symbolErrorRate:histogram
field count 0
field mean -nan
field stddev -nan
field sum 0
field sqrsum 0
field min -nan
field max -nan
attr source  symbolErrorRate
attr title  "Symbol error rate, histogram"
bin	-INF	0
bin	-0.5	0
bin	-0.46666666666667	0
bin	-0.43333333333333	0
bin	-0.4	0
bin	-0.36666666666667	0
bin	-0.33333333333333	0
bin	-0.3	0
bin	-0.26666666666667	0
bin	-0.23333333333333	0
bin	-0.2	0
bin	-0.16666666666667	0
bin	-0.13333333333333	0
bin	-0.1	0
bin	-0.066666666666667	0
bin	-0.033333333333333	0
bin	0	0
bin	0.033333333333333	0
bin	0.066666666666667	0
bin	0.1	0
bin	0.13333333333333	0
bin	0.16666666666667	0
bin	0.2	0
bin	0.23333333333333	0
bin	0.26666666666667	0
bin	0.3	0
bin	0.33333333333333	0
bin	0.36666666666667	0
bin	0.4	0
bin	0.43333333333333	0
bin	0.46666666666667	0
bin	0.5	0
statistic scenarioPRJP1.node[61].wlan[0].radio 	bitErrorRate:histogram
field count 0
field mean -nan
field stddev -nan
field sum 0
field sqrsum 0
field min -nan
field max -nan
attr source  bitErrorRate
attr title  "Bit error rate, histogram"
bin	-INF	0
bin	-0.5	0
bin	-0.46666666666667	0
bin	-0.43333333333333	0
bin	-0.4	0
bin	-0.36666666666667	0
bin	-0.33333333333333	0
bin	-0.3	0
bin	-0.26666666666667	0
bin	-0.23333333333333	0
bin	-0.2	0
bin	-0.16666666666667	0
bin	-0.13333333333333	0
bin	-0.1	0
bin	-0.066666666666667	0
bin	-0.033333333333333	0
bin	0	0
bin	0.033333333333333	0
bin	0.066666666666667	0
bin	0.1	0
bin	0.13333333333333	0
bin	0.16666666666667	0
bin	0.2	0
bin	0.23333333333333	0
bin	0.26666666666667	0
bin	0.3	0
bin	0.33333333333333	0
bin	0.36666666666667	0
bin	0.4	0
bin	0.43333333333333	0
bin	0.46666666666667	0
bin	0.5	0
statistic scenarioPRJP1.node[61].wlan[0].radio 	packetErrorRate:histogram
field count 17423
field mean 0.066351727100536
field stddev 0.24236138456167
field sum 1156.0461412726
field sqrsum 1100.0572256211
field min 0
field max 1
attr source  packetErrorRate
attr title  "Packet error rate, histogram"
bin	-INF	1637
bin	-1.2648992964159e-11	0
bin	-1.0962460568938e-11	0
bin	-9.2759281737168e-12	0
bin	-7.5893957784956e-12	0
bin	-5.9028633832744e-12	0
bin	-4.2163309880531e-12	0
bin	-2.5297985928319e-12	0
bin	-8.4326619761062e-13	13844
bin	8.4326619761062e-13	72
bin	2.5297985928319e-12	43
bin	4.2163309880531e-12	23
bin	5.9028633832744e-12	18
bin	7.5893957784956e-12	13
bin	9.2759281737168e-12	8
bin	1.0962460568938e-11	13
bin	1.2648992964159e-11	10
bin	1.4335525359381e-11	9
bin	1.6022057754602e-11	4
bin	1.7708590149823e-11	8
bin	1.9395122545044e-11	6
bin	2.1081654940266e-11	2
bin	2.2768187335487e-11	4
bin	2.4454719730708e-11	1
bin	2.6141252125929e-11	5
bin	2.7827784521151e-11	4
bin	2.9514316916372e-11	6
bin	3.1200849311593e-11	1
bin	3.2887381706814e-11	2
bin	3.4573914102036e-11	3
bin	3.6260446497257e-11	1
bin	3.7946978892478e-11	1686
statistic scenarioPRJP1.node[61].wlan[0].radio 	minSNIR:histogram
field count 17423
field mean 5076.8717854351
field stddev 40829.251400689
field sum 88454337.117635
field sqrsum 29492029136318
field min 0.00055626593444518
field max 753239.7090957
attr source  minSNIR
attr title  "Min SNIR, histogram"
bin	-INF	0
bin	-2677.4087661683	0
bin	-2319.6293994564	0
bin	-1961.8500327444	0
bin	-1604.0706660325	0
bin	-1246.2912993206	0
bin	-888.51193260873	0
bin	-530.73256589683	0
bin	-172.95319918492	11866
bin	184.82616752698	2287
bin	542.60553423889	640
bin	900.38490095079	401
bin	1258.1642676627	295
bin	1615.9436343746	181
bin	1973.7230010865	185
bin	2331.5023677984	72
bin	2689.2817345103	68
bin	3047.0611012222	61
bin	3404.8404679341	55
bin	3762.619834646	37
bin	4120.3992013579	41
bin	4478.1785680698	36
bin	4835.9579347817	31
bin	5193.7373014937	26
bin	5551.5166682056	38
bin	5909.2960349175	29
bin	6267.0754016294	27
bin	6624.8547683413	24
bin	6982.6341350532	30
bin	7340.4135017651	20
bin	7698.192868477	17
bin	8055.9722351889	956
scalar scenarioPRJP1.node[61].lo0.lo 	droppedPkBitError:count 	0
attr interpolationmode  none
attr source  dropPkBitError
attr title  "packets dropped/bit error, count"
scalar scenarioPRJP1.node[61].lo0.lo 	droppedPkBitError:sum(packetBytes) 	0
attr interpolationmode  none
attr source  dropPkBitError
attr title  "packets dropped/bit error, sum(packetBytes)"
scalar scenarioPRJP1.node[61].lo0.lo 	rcvdPkFromHL:count 	0
attr interpolationmode  none
attr source  packetReceivedFromUpper
attr title  "packets received from higher layer, count"
scalar scenarioPRJP1.node[61].lo0.lo 	rcvdPkFromHL:sum(packetBytes) 	0
attr interpolationmode  none
attr source  packetReceivedFromUpper
attr title  "packets received from higher layer, sum(packetBytes)"
scalar scenarioPRJP1.node[61].lo0.lo 	passedUpPk:count 	0
attr interpolationmode  none
attr source  packetSentToUpper
attr title  "packets passed to higher layer, count"
scalar scenarioPRJP1.node[61].lo0.lo 	passedUpPk:sum(packetBytes) 	0
attr interpolationmode  none
attr source  packetSentToUpper
attr title  "packets passed to higher layer, sum(packetBytes)"
scalar scenarioPRJP1.node[34].app 	"Total sent" 	616
scalar scenarioPRJP1.node[34].app 	"Total received" 	62
scalar scenarioPRJP1.node[34].app 	"Total deleted" 	11
scalar scenarioPRJP1.node[34].app 	dropPk:count 	11
attr interpolationmode  none
attr source  dropPk
attr title  "packets dropped, count"
scalar scenarioPRJP1.node[34].app 	dropPk:sum(packetBytes) 	5632
attr interpolationmode  none
attr source  dropPk
attr title  "packets dropped, sum(packetBytes)"
scalar scenarioPRJP1.node[34].app 	outOfOrderPk:count 	1
attr interpolationmode  none
attr source  outOfOrderPk
attr title  "packets received out of order, count"
scalar scenarioPRJP1.node[34].app 	outOfOrderPk:sum(packetBytes) 	512
attr interpolationmode  none
attr source  outOfOrderPk
attr title  "packets received out of order, sum(packetBytes)"
scalar scenarioPRJP1.node[34].app 	rcvdPk:count 	62
attr interpolationmode  none
attr source  rcvdPk
attr title  "packets received, count"
scalar scenarioPRJP1.node[34].app 	rcvdPk:sum(packetBytes) 	31744
attr interpolationmode  none
attr source  rcvdPk
attr title  "packets received, sum(packetBytes)"
statistic scenarioPRJP1.node[34].app 	endToEndDelay:histogram
field count 62
field mean 0.73160360543673
field stddev 1.7313830854702
field sum 45.359423537077
field sqrsum 216.04404850805
field min 0.000958011007
field max 8.964337371444
attr interpolationmode  none
attr source  messageAge(rcvdPk)
attr title  "delay, histogram"
attr unit  s
bin	-INF	0
bin	-4.4807316692115	0
bin	-3.8831730451824	0
bin	-3.2856144211532	0
bin	-2.6880557971241	0
bin	-2.090497173095	0
bin	-1.4929385490658	0
bin	-0.8953799250367	0
bin	-0.29782130100757	46
bin	0.29973732302157	4
bin	0.8972959470507	2
bin	1.4948545710798	4
bin	2.092413195109	0
bin	2.6899718191381	2
bin	3.2875304431672	1
bin	3.8850890671964	0
bin	4.4826476912255	0
bin	5.0802063152546	0
bin	5.6777649392838	1
bin	6.2753235633129	0
bin	6.872882187342	1
bin	7.4704408113712	0
bin	8.0679994354003	0
bin	8.6655580594294	1
bin	9.2631166834586	0
bin	9.8606753074877	0
bin	10.458233931517	0
bin	11.055792555546	0
bin	11.653351179575	0
bin	12.250909803604	0
bin	12.848468427633	0
bin	13.446027051662	0
scalar scenarioPRJP1.node[34].app 	sentPk:count 	616
attr interpolationmode  none
attr source  sentPk
attr title  "packets sent, count"
scalar scenarioPRJP1.node[34].app 	sentPk:sum(packetBytes) 	315392
attr interpolationmode  none
attr source  sentPk
attr title  "packets sent, sum(packetBytes)"
scalar scenarioPRJP1.node[34].udp 	droppedPkBadChecksum:count 	0
attr interpolationmode  none
attr title  "packets dropped (checksum error), count"
scalar scenarioPRJP1.node[34].udp 	droppedPkWrongPort:count 	0
attr interpolationmode  none
attr title  "packets dropped (wrong port), count"
scalar scenarioPRJP1.node[34].udp 	passedUpPk:count 	74
attr interpolationmode  none
attr title  "packets passed up, count"
scalar scenarioPRJP1.node[34].udp 	rcvdPk:count 	74
attr interpolationmode  none
attr source  rcvdPk
attr title  "packets received, count"
scalar scenarioPRJP1.node[34].udp 	rcvdPk:sum(packetBytes) 	38480
attr interpolationmode  none
attr source  rcvdPk
attr title  "packets received, sum(packetBytes)"
scalar scenarioPRJP1.node[34].udp 	sentPk:count 	616
attr interpolationmode  none
attr source  sentPk
attr title  "packets sent, count"
scalar scenarioPRJP1.node[34].udp 	sentPk:sum(packetBytes) 	320320
attr interpolationmode  none
attr source  sentPk
attr title  "packets sent, sum(packetBytes)"
scalar scenarioPRJP1.node[34].networkLayer.arp 	failedARPResolution:count 	0
attr title  "ARP failed resolutions, count"
scalar scenarioPRJP1.node[34].networkLayer.arp 	completedARPResolution:count 	114
attr title  "ARP completed resolutions, count"
scalar scenarioPRJP1.node[34].networkLayer.arp 	initiatedARPResolution:count 	4
attr title  "ARP initiated resolutions, count"
scalar scenarioPRJP1.node[34].networkLayer.arp 	sentReply:count 	25
attr title  "ARP replies sent, count"
scalar scenarioPRJP1.node[34].networkLayer.arp 	sentReq:count 	5
attr title  "ARP request sent, count"
scalar scenarioPRJP1.node[34].mobility 	startTime 	2.5
scalar scenarioPRJP1.node[34].mobility 	totalTime 	243.8
scalar scenarioPRJP1.node[34].mobility 	stopTime 	246.4
scalar scenarioPRJP1.node[34].mobility 	minSpeed 	2.4764969330884e-13
scalar scenarioPRJP1.node[34].mobility 	maxSpeed 	17.65739400808
scalar scenarioPRJP1.node[34].mobility 	totalDistance 	2233.6961147664
scalar scenarioPRJP1.node[34].mobility 	totalCO2Emission 	656.35995980885
scalar scenarioPRJP1.node[34].wlan[0].mgmt 	dataQueueLen:max 	6
attr interpolationmode  sample-hold
attr title  "data queue length, max"
scalar scenarioPRJP1.node[34].wlan[0].mgmt 	dataQueueLen:timeavg 	0
attr interpolationmode  sample-hold
attr title  "data queue length, timeavg"
scalar scenarioPRJP1.node[34].wlan[0].mgmt 	dropPkByQueue:count 	0
attr interpolationmode  none
attr source  dropPkByQueue
attr title  "packets dropped by queue, count"
scalar scenarioPRJP1.node[34].wlan[0].mgmt 	dropPkByQueue:sum(packetBytes) 	0
attr interpolationmode  none
attr source  dropPkByQueue
attr title  "packets dropped by queue, sum(packetBytes)"
scalar scenarioPRJP1.node[34].wlan[0].mac 	"number of received packets" 	541
scalar scenarioPRJP1.node[34].wlan[0].mac 	"number of collisions" 	1425
scalar scenarioPRJP1.node[34].wlan[0].mac 	"number of internal collisions" 	0
scalar scenarioPRJP1.node[34].wlan[0].mac 	"number of retry for AC 0" 	749
scalar scenarioPRJP1.node[34].wlan[0].mac 	"number of retry for AC 1" 	0
scalar scenarioPRJP1.node[34].wlan[0].mac 	"number of retry for AC 2" 	0
scalar scenarioPRJP1.node[34].wlan[0].mac 	"number of retry for AC 3" 	0
scalar scenarioPRJP1.node[34].wlan[0].mac 	"sent and received bits" 	2184224
scalar scenarioPRJP1.node[34].wlan[0].mac 	"sent packet within AC 0" 	98
scalar scenarioPRJP1.node[34].wlan[0].mac 	"sent packet within AC 1" 	0
scalar scenarioPRJP1.node[34].wlan[0].mac 	"sent packet within AC 2" 	0
scalar scenarioPRJP1.node[34].wlan[0].mac 	"sent packet within AC 3" 	0
scalar scenarioPRJP1.node[34].wlan[0].mac 	"sent in TXOP " 	0
scalar scenarioPRJP1.node[34].wlan[0].mac 	"sentWithoutRetry AC 0" 	90
scalar scenarioPRJP1.node[34].wlan[0].mac 	"sentWithoutRetry AC 1" 	0
scalar scenarioPRJP1.node[34].wlan[0].mac 	"sentWithoutRetry AC 2" 	0
scalar scenarioPRJP1.node[34].wlan[0].mac 	"sentWithoutRetry AC 3" 	0
scalar scenarioPRJP1.node[34].wlan[0].mac 	"numGivenUp AC 0" 	123
scalar scenarioPRJP1.node[34].wlan[0].mac 	"numGivenUp AC 1" 	0
scalar scenarioPRJP1.node[34].wlan[0].mac 	"numGivenUp AC 2" 	0
scalar scenarioPRJP1.node[34].wlan[0].mac 	"numGivenUp AC 3" 	0
scalar scenarioPRJP1.node[34].wlan[0].mac 	"numDropped AC 0" 	0
scalar scenarioPRJP1.node[34].wlan[0].mac 	"numDropped AC 1" 	0
scalar scenarioPRJP1.node[34].wlan[0].mac 	"numDropped AC 2" 	0
scalar scenarioPRJP1.node[34].wlan[0].mac 	"numDropped AC 3" 	0
scalar scenarioPRJP1.node[34].wlan[0].mac 	rcvdPkFromLL:count 	22170
attr interpolationmode  none
attr source  packetReceivedFromLower
attr title  "packets received from lower layer, count"
scalar scenarioPRJP1.node[34].wlan[0].mac 	rcvdPkFromLL:sum(packetBytes) 	3178378
attr interpolationmode  none
attr source  packetReceivedFromLower
attr title  "packets received from lower layer, sum(packetBytes)"
scalar scenarioPRJP1.node[34].wlan[0].mac 	sentDownPk:count 	4033
attr interpolationmode  none
attr source  packetSentToLower
attr title  "packets sent to lower layer, count"
scalar scenarioPRJP1.node[34].wlan[0].mac 	sentDownPk:sum(packetBytes) 	683690
attr interpolationmode  none
attr source  packetSentToLower
attr title  "packets sent to lower layer, sum(packetBytes)"
scalar scenarioPRJP1.node[34].wlan[0].mac 	rcvdPkFromHL:count 	2743
attr interpolationmode  none
attr source  packetReceivedFromUpper
attr title  "packets received from higher layer, count"
scalar scenarioPRJP1.node[34].wlan[0].mac 	rcvdPkFromHL:sum(packetBytes) 	329780
attr interpolationmode  none
attr source  packetReceivedFromUpper
attr title  "packets received from higher layer, sum(packetBytes)"
scalar scenarioPRJP1.node[34].wlan[0].mac 	passedUpPk:count 	14296
attr interpolationmode  none
attr source  packetSentToUpper
attr title  "packets passed to higher layer, count"
scalar scenarioPRJP1.node[34].wlan[0].mac 	passedUpPk:sum(packetBytes) 	1306388
attr interpolationmode  none
attr source  packetSentToUpper
attr title  "packets passed to higher layer, sum(packetBytes)"
statistic scenarioPRJP1.node[34].wlan[0].radio 	radioChannel:histogram
field count 1
field mean 3
field stddev -nan
field sum 3
field sqrsum 9
field min 3
field max 3
attr interpolationmode  sample-hold
attr source  radioChannelChanged
attr title  "Radio channel, histogram"
bin	-INF	0
bin	2	0
bin	3	1
bin	4	0
scalar scenarioPRJP1.node[34].wlan[0].radio 	transmissionState:count 	16132
attr interpolationmode  sample-hold
attr source  transmissionStateChanged
attr title  "Radio transmission state, count"
scalar scenarioPRJP1.node[34].wlan[0].radio 	receptionState:count 	52619
attr interpolationmode  sample-hold
attr source  receptionStateChanged
attr title  "Radio reception state, count"
scalar scenarioPRJP1.node[34].wlan[0].radio 	radioMode:count 	8068
attr interpolationmode  sample-hold
attr source  radioModeChanged
attr title  "Radio mode, count"
statistic scenarioPRJP1.node[34].wlan[0].radio 	symbolErrorRate:histogram
field count 0
field mean -nan
field stddev -nan
field sum 0
field sqrsum 0
field min -nan
field max -nan
attr source  symbolErrorRate
attr title  "Symbol error rate, histogram"
bin	-INF	0
bin	-0.5	0
bin	-0.46666666666667	0
bin	-0.43333333333333	0
bin	-0.4	0
bin	-0.36666666666667	0
bin	-0.33333333333333	0
bin	-0.3	0
bin	-0.26666666666667	0
bin	-0.23333333333333	0
bin	-0.2	0
bin	-0.16666666666667	0
bin	-0.13333333333333	0
bin	-0.1	0
bin	-0.066666666666667	0
bin	-0.033333333333333	0
bin	0	0
bin	0.033333333333333	0
bin	0.066666666666667	0
bin	0.1	0
bin	0.13333333333333	0
bin	0.16666666666667	0
bin	0.2	0
bin	0.23333333333333	0
bin	0.26666666666667	0
bin	0.3	0
bin	0.33333333333333	0
bin	0.36666666666667	0
bin	0.4	0
bin	0.43333333333333	0
bin	0.46666666666667	0
bin	0.5	0
statistic scenarioPRJP1.node[34].wlan[0].radio 	bitErrorRate:histogram
field count 0
field mean -nan
field stddev -nan
field sum 0
field sqrsum 0
field min -nan
field max -nan
attr source  bitErrorRate
attr title  "Bit error rate, histogram"
bin	-INF	0
bin	-0.5	0
bin	-0.46666666666667	0
bin	-0.43333333333333	0
bin	-0.4	0
bin	-0.36666666666667	0
bin	-0.33333333333333	0
bin	-0.3	0
bin	-0.26666666666667	0
bin	-0.23333333333333	0
bin	-0.2	0
bin	-0.16666666666667	0
bin	-0.13333333333333	0
bin	-0.1	0
bin	-0.066666666666667	0
bin	-0.033333333333333	0
bin	0	0
bin	0.033333333333333	0
bin	0.066666666666667	0
bin	0.1	0
bin	0.13333333333333	0
bin	0.16666666666667	0
bin	0.2	0
bin	0.23333333333333	0
bin	0.26666666666667	0
bin	0.3	0
bin	0.33333333333333	0
bin	0.36666666666667	0
bin	0.4	0
bin	0.43333333333333	0
bin	0.46666666666667	0
bin	0.5	0
statistic scenarioPRJP1.node[34].wlan[0].radio 	packetErrorRate:histogram
field count 22170
field mean 0.049964022304718
field stddev 0.21060466693205
field sum 1107.7023744956
field sqrsum 1038.6363133336
field min 0
field max 1
attr source  packetErrorRate
attr title  "Packet error rate, histogram"
bin	-INF	0
bin	-1.8044487342384e-05	0
bin	-1.5638555696732e-05	0
bin	-1.3232624051081e-05	0
bin	-1.082669240543e-05	0
bin	-8.420760759779e-06	0
bin	-6.0148291141278e-06	0
bin	-3.6088974684767e-06	0
bin	-1.2029658228256e-06	19423
bin	1.2029658228256e-06	127
bin	3.6088974684767e-06	78
bin	6.0148291141278e-06	36
bin	8.420760759779e-06	13
bin	1.082669240543e-05	32
bin	1.3232624051081e-05	30
bin	1.5638555696732e-05	15
bin	1.8044487342384e-05	17
bin	2.0450418988035e-05	13
bin	2.2856350633686e-05	13
bin	2.5262282279337e-05	8
bin	2.7668213924988e-05	9
bin	3.0074145570639e-05	7
bin	3.248007721629e-05	10
bin	3.4886008861941e-05	11
bin	3.7291940507593e-05	5
bin	3.9697872153244e-05	11
bin	4.2103803798895e-05	6
bin	4.4509735444546e-05	2
bin	4.6915667090197e-05	9
bin	4.9321598735848e-05	7
bin	5.1727530381499e-05	7
bin	5.4133462027151e-05	2281
statistic scenarioPRJP1.node[34].wlan[0].radio 	minSNIR:histogram
field count 22170
field mean 18040.988985723
field stddev 88972.781898272
field sum 399968725.81347
field sqrsum 1.8270909193908e+14
field min 0.00016856143917217
field max 753239.71923443
attr source  minSNIR
attr title  "Min SNIR, histogram"
bin	-INF	0
bin	-691.59337701165	0
bin	-598.932747253	0
bin	-506.27211749434	0
bin	-413.61148773569	0
bin	-320.95085797704	0
bin	-228.29022821838	0
bin	-135.62959845973	0
bin	-42.968968701071	9739
bin	49.691661057584	2625
bin	142.35229081624	1582
bin	235.01292057489	972
bin	327.67355033355	574
bin	420.3341800922	397
bin	512.99480985086	293
bin	605.65543960951	238
bin	698.31606936817	216
bin	790.97669912682	161
bin	883.63732888548	116
bin	976.29795864413	114
bin	1068.9585884028	123
bin	1161.6192181614	117
bin	1254.2798479201	99
bin	1346.9404776788	121
bin	1439.6011074374	84
bin	1532.2617371961	72
bin	1624.9223669547	73
bin	1717.5829967134	57
bin	1810.243626472	63
bin	1902.9042562307	43
bin	1995.5648859893	51
bin	2088.225515748	4240
scalar scenarioPRJP1.node[34].lo0.lo 	droppedPkBitError:count 	0
attr interpolationmode  none
attr source  dropPkBitError
attr title  "packets dropped/bit error, count"
scalar scenarioPRJP1.node[34].lo0.lo 	droppedPkBitError:sum(packetBytes) 	0
attr interpolationmode  none
attr source  dropPkBitError
attr title  "packets dropped/bit error, sum(packetBytes)"
scalar scenarioPRJP1.node[34].lo0.lo 	rcvdPkFromHL:count 	0
attr interpolationmode  none
attr source  packetReceivedFromUpper
attr title  "packets received from higher layer, count"
scalar scenarioPRJP1.node[34].lo0.lo 	rcvdPkFromHL:sum(packetBytes) 	0
attr interpolationmode  none
attr source  packetReceivedFromUpper
attr title  "packets received from higher layer, sum(packetBytes)"
scalar scenarioPRJP1.node[34].lo0.lo 	passedUpPk:count 	0
attr interpolationmode  none
attr source  packetSentToUpper
attr title  "packets passed to higher layer, count"
scalar scenarioPRJP1.node[34].lo0.lo 	passedUpPk:sum(packetBytes) 	0
attr interpolationmode  none
attr source  packetSentToUpper
attr title  "packets passed to higher layer, sum(packetBytes)"
scalar scenarioPRJP1.node[84].app 	"Total sent" 	730
scalar scenarioPRJP1.node[84].app 	"Total received" 	40
scalar scenarioPRJP1.node[84].app 	"Total deleted" 	5
scalar scenarioPRJP1.node[84].app 	dropPk:count 	5
attr interpolationmode  none
attr source  dropPk
attr title  "packets dropped, count"
scalar scenarioPRJP1.node[84].app 	dropPk:sum(packetBytes) 	2560
attr interpolationmode  none
attr source  dropPk
attr title  "packets dropped, sum(packetBytes)"
scalar scenarioPRJP1.node[84].app 	outOfOrderPk:count 	4
attr interpolationmode  none
attr source  outOfOrderPk
attr title  "packets received out of order, count"
scalar scenarioPRJP1.node[84].app 	outOfOrderPk:sum(packetBytes) 	2048
attr interpolationmode  none
attr source  outOfOrderPk
attr title  "packets received out of order, sum(packetBytes)"
scalar scenarioPRJP1.node[84].app 	rcvdPk:count 	40
attr interpolationmode  none
attr source  rcvdPk
attr title  "packets received, count"
scalar scenarioPRJP1.node[84].app 	rcvdPk:sum(packetBytes) 	20480
attr interpolationmode  none
attr source  rcvdPk
attr title  "packets received, sum(packetBytes)"
statistic scenarioPRJP1.node[84].app 	endToEndDelay:histogram
field count 40
field mean 0.30114010047155
field stddev 1.6589539375166
field sum 12.045604018862
field sqrsum 110.96041290975
field min 0.000958138432
field max 10.443138290746
attr interpolationmode  none
attr source  messageAge(rcvdPk)
attr title  "delay, histogram"
attr unit  s
bin	-INF	0
bin	-5.220131937725	0
bin	-4.5239865942374	0
bin	-3.8278412507498	0
bin	-3.1316959072622	0
bin	-2.4355505637746	0
bin	-1.739405220287	0
bin	-1.0432598767994	0
bin	-0.3471145333118	38
bin	0.3490308101758	0
bin	1.0451761536634	1
bin	1.741321497151	0
bin	2.4374668406386	0
bin	3.1336121841262	0
bin	3.8297575276138	0
bin	4.5259028711014	0
bin	5.222048214589	0
bin	5.9181935580766	0
bin	6.6143389015642	0
bin	7.3104842450518	0
bin	8.0066295885394	0
bin	8.702774932027	0
bin	9.3989202755146	0
bin	10.095065619002	1
bin	10.79121096249	0
bin	11.487356305977	0
bin	12.183501649465	0
bin	12.879646992953	0
bin	13.57579233644	0
bin	14.271937679928	0
bin	14.968083023415	0
bin	15.664228366903	0
scalar scenarioPRJP1.node[84].app 	sentPk:count 	730
attr interpolationmode  none
attr source  sentPk
attr title  "packets sent, count"
scalar scenarioPRJP1.node[84].app 	sentPk:sum(packetBytes) 	373760
attr interpolationmode  none
attr source  sentPk
attr title  "packets sent, sum(packetBytes)"
scalar scenarioPRJP1.node[84].udp 	droppedPkBadChecksum:count 	0
attr interpolationmode  none
attr title  "packets dropped (checksum error), count"
scalar scenarioPRJP1.node[84].udp 	droppedPkWrongPort:count 	0
attr interpolationmode  none
attr title  "packets dropped (wrong port), count"
scalar scenarioPRJP1.node[84].udp 	passedUpPk:count 	49
attr interpolationmode  none
attr title  "packets passed up, count"
scalar scenarioPRJP1.node[84].udp 	rcvdPk:count 	49
attr interpolationmode  none
attr source  rcvdPk
attr title  "packets received, count"
scalar scenarioPRJP1.node[84].udp 	rcvdPk:sum(packetBytes) 	25480
attr interpolationmode  none
attr source  rcvdPk
attr title  "packets received, sum(packetBytes)"
scalar scenarioPRJP1.node[84].udp 	sentPk:count 	729
attr interpolationmode  none
attr source  sentPk
attr title  "packets sent, count"
scalar scenarioPRJP1.node[84].udp 	sentPk:sum(packetBytes) 	379080
attr interpolationmode  none
attr source  sentPk
attr title  "packets sent, sum(packetBytes)"
scalar scenarioPRJP1.node[84].networkLayer.arp 	failedARPResolution:count 	3
attr title  "ARP failed resolutions, count"
scalar scenarioPRJP1.node[84].networkLayer.arp 	completedARPResolution:count 	215
attr title  "ARP completed resolutions, count"
scalar scenarioPRJP1.node[84].networkLayer.arp 	initiatedARPResolution:count 	29
attr title  "ARP initiated resolutions, count"
scalar scenarioPRJP1.node[84].networkLayer.arp 	sentReply:count 	17
attr title  "ARP replies sent, count"
scalar scenarioPRJP1.node[84].networkLayer.arp 	sentReq:count 	46
attr title  "ARP request sent, count"
scalar scenarioPRJP1.node[84].mobility 	startTime 	9.7
scalar scenarioPRJP1.node[84].mobility 	totalTime 	275.2
scalar scenarioPRJP1.node[84].mobility 	stopTime 	285
scalar scenarioPRJP1.node[84].mobility 	minSpeed 	2.4754185901245e-13
scalar scenarioPRJP1.node[84].mobility 	maxSpeed 	17.300054654612
scalar scenarioPRJP1.node[84].mobility 	totalDistance 	2202.178916445
scalar scenarioPRJP1.node[84].mobility 	totalCO2Emission 	676.80343259133
scalar scenarioPRJP1.node[84].wlan[0].mgmt 	dataQueueLen:max 	10
attr interpolationmode  sample-hold
attr title  "data queue length, max"
scalar scenarioPRJP1.node[84].wlan[0].mgmt 	dataQueueLen:timeavg 	0
attr interpolationmode  sample-hold
attr title  "data queue length, timeavg"
scalar scenarioPRJP1.node[84].wlan[0].mgmt 	dropPkByQueue:count 	0
attr interpolationmode  none
attr source  dropPkByQueue
attr title  "packets dropped by queue, count"
scalar scenarioPRJP1.node[84].wlan[0].mgmt 	dropPkByQueue:sum(packetBytes) 	0
attr interpolationmode  none
attr source  dropPkByQueue
attr title  "packets dropped by queue, sum(packetBytes)"
scalar scenarioPRJP1.node[84].wlan[0].mac 	"number of received packets" 	628
scalar scenarioPRJP1.node[84].wlan[0].mac 	"number of collisions" 	3944
scalar scenarioPRJP1.node[84].wlan[0].mac 	"number of internal collisions" 	0
scalar scenarioPRJP1.node[84].wlan[0].mac 	"number of retry for AC 0" 	987
scalar scenarioPRJP1.node[84].wlan[0].mac 	"number of retry for AC 1" 	0
scalar scenarioPRJP1.node[84].wlan[0].mac 	"number of retry for AC 2" 	0
scalar scenarioPRJP1.node[84].wlan[0].mac 	"number of retry for AC 3" 	0
scalar scenarioPRJP1.node[84].wlan[0].mac 	"sent and received bits" 	3110048
scalar scenarioPRJP1.node[84].wlan[0].mac 	"sent packet within AC 0" 	125
scalar scenarioPRJP1.node[84].wlan[0].mac 	"sent packet within AC 1" 	0
scalar scenarioPRJP1.node[84].wlan[0].mac 	"sent packet within AC 2" 	0
scalar scenarioPRJP1.node[84].wlan[0].mac 	"sent packet within AC 3" 	0
scalar scenarioPRJP1.node[84].wlan[0].mac 	"sent in TXOP " 	0
scalar scenarioPRJP1.node[84].wlan[0].mac 	"sentWithoutRetry AC 0" 	110
scalar scenarioPRJP1.node[84].wlan[0].mac 	"sentWithoutRetry AC 1" 	0
scalar scenarioPRJP1.node[84].wlan[0].mac 	"sentWithoutRetry AC 2" 	0
scalar scenarioPRJP1.node[84].wlan[0].mac 	"sentWithoutRetry AC 3" 	0
scalar scenarioPRJP1.node[84].wlan[0].mac 	"numGivenUp AC 0" 	161
scalar scenarioPRJP1.node[84].wlan[0].mac 	"numGivenUp AC 1" 	0
scalar scenarioPRJP1.node[84].wlan[0].mac 	"numGivenUp AC 2" 	0
scalar scenarioPRJP1.node[84].wlan[0].mac 	"numGivenUp AC 3" 	0
scalar scenarioPRJP1.node[84].wlan[0].mac 	"numDropped AC 0" 	0
scalar scenarioPRJP1.node[84].wlan[0].mac 	"numDropped AC 1" 	0
scalar scenarioPRJP1.node[84].wlan[0].mac 	"numDropped AC 2" 	0
scalar scenarioPRJP1.node[84].wlan[0].mac 	"numDropped AC 3" 	0
scalar scenarioPRJP1.node[84].wlan[0].mac 	rcvdPkFromLL:count 	42113
attr interpolationmode  none
attr source  packetReceivedFromLower
attr title  "packets received from lower layer, count"
scalar scenarioPRJP1.node[84].wlan[0].mac 	rcvdPkFromLL:sum(packetBytes) 	6694478
attr interpolationmode  none
attr source  packetReceivedFromLower
attr title  "packets received from lower layer, sum(packetBytes)"
scalar scenarioPRJP1.node[84].wlan[0].mac 	sentDownPk:count 	5652
attr interpolationmode  none
attr source  packetSentToLower
attr title  "packets sent to lower layer, count"
scalar scenarioPRJP1.node[84].wlan[0].mac 	sentDownPk:sum(packetBytes) 	849000
attr interpolationmode  none
attr source  packetSentToLower
attr title  "packets sent to lower layer, sum(packetBytes)"
scalar scenarioPRJP1.node[84].wlan[0].mac 	rcvdPkFromHL:count 	4037
attr interpolationmode  none
attr source  packetReceivedFromUpper
attr title  "packets received from higher layer, count"
scalar scenarioPRJP1.node[84].wlan[0].mac 	rcvdPkFromHL:sum(packetBytes) 	451732
attr interpolationmode  none
attr source  packetReceivedFromUpper
attr title  "packets received from higher layer, sum(packetBytes)"
scalar scenarioPRJP1.node[84].wlan[0].mac 	passedUpPk:count 	23591
attr interpolationmode  none
attr source  packetSentToUpper
attr title  "packets passed to higher layer, count"
scalar scenarioPRJP1.node[84].wlan[0].mac 	passedUpPk:sum(packetBytes) 	2142552
attr interpolationmode  none
attr source  packetSentToUpper
attr title  "packets passed to higher layer, sum(packetBytes)"
statistic scenarioPRJP1.node[84].wlan[0].radio 	radioChannel:histogram
field count 1
field mean 3
field stddev -nan
field sum 3
field sqrsum 9
field min 3
field max 3
attr interpolationmode  sample-hold
[...]
statistic scenarioPRJP1.node[79].wlan[0].radio 	radioChannel:histogram
field count 1
field mean 3
field stddev -nan
field sum 3
field sqrsum 9
field min 3
field max 3
attr interpolationmode  sample-hold
attr source  radioChannelChanged
attr title  "Radio channel, histogram"
bin	-INF	0
bin	2	0
bin	3	1
bin	4	0
scalar scenarioPRJP1.node[79].wlan[0].radio 	transmissionState:count 	104088
attr interpolationmode  sample-hold
attr source  transmissionStateChanged
attr title  "Radio transmission state, count"
scalar scenarioPRJP1.node[79].wlan[0].radio 	receptionState:count 	346413
attr interpolationmode  sample-hold
attr source  receptionStateChanged
attr title  "Radio reception state, count"
scalar scenarioPRJP1.node[79].wlan[0].radio 	radioMode:count 	52046
attr interpolationmode  sample-hold
attr source  radioModeChanged
attr title  "Radio mode, count"
statistic scenarioPRJP1.node[79].wlan[0].radio 	symbolErrorRate:histogram
field count 0
field mean -nan
field stddev -nan
field sum 0
field sqrsum 0
field min -nan
field max -nan
attr source  symbolErrorRate
attr title  "Symbol error rate, histogram"
bin	-INF	0
bin	-0.5	0
bin	-0.46666666666667	0
bin	-0.43333333333333	0
bin	-0.4	0
bin	-0.36666666666667	0
bin	-0.33333333333333	0
bin	-0.3	0
bin	-0.26666666666667	0
bin	-0.23333333333333	0
bin	-0.2	0
bin	-0.16666666666667	0
bin	-0.13333333333333	0
bin	-0.1	0
bin	-0.066666666666667	0
bin	-0.033333333333333	0
bin	0	0
bin	0.033333333333333	0
bin	0.066666666666667	0
bin	0.1	0
bin	0.13333333333333	0
bin	0.16666666666667	0
bin	0.2	0
bin	0.23333333333333	0
bin	0.26666666666667	0
bin	0.3	0
bin	0.33333333333333	0
bin	0.36666666666667	0
bin	0.4	0
bin	0.43333333333333	0
bin	0.46666666666667	0
bin	0.5	0
statistic scenarioPRJP1.node[79].wlan[0].radio 	bitErrorRate:histogram
field count 0
field mean -nan
field stddev -nan
field sum 0
field sqrsum 0
field min -nan
field max -nan
attr source  bitErrorRate
attr title  "Bit error rate, histogram"
bin	-INF	0
bin	-0.5	0
bin	-0.46666666666667	0
bin	-0.43333333333333	0
bin	-0.4	0
bin	-0.36666666666667	0
bin	-0.33333333333333	0
bin	-0.3	0
bin	-0.26666666666667	0
bin	-0.23333333333333	0
bin	-0.2	0
bin	-0.16666666666667	0
bin	-0.13333333333333	0
bin	-0.1	0
bin	-0.066666666666667	0
bin	-0.033333333333333	0
bin	0	0
bin	0.033333333333333	0
bin	0.066666666666667	0
bin	0.1	0
bin	0.13333333333333	0
bin	0.16666666666667	0
bin	0.2	0
bin	0.23333333333333	0
bin	0.26666666666667	0
bin	0.3	0
bin	0.33333333333333	0
bin	0.36666666666667	0
bin	0.4	0
bin	0.43333333333333	0
bin	0.46666666666667	0
bin	0.5	0
statistic scenarioPRJP1.node[79].wlan[0].radio 	packetErrorRate:histogram
field count 145761
field mean 0.11644016736715
field stddev 0.31219071505905
field sum 16972.435235602
field sqrsum 16182.48628433
field min 0
field max 1
attr source  packetErrorRate
attr title  "Packet error rate, histogram"
bin	-INF	0
bin	-0.23824586223766	0
bin	-0.20647974727264	0
bin	-0.17471363230762	0
bin	-0.1429475173426	0
bin	-0.11118140237758	0
bin	-0.079415287412554	0
bin	-0.047649172447532	0
bin	-0.015883057482511	124490
bin	0.015883057482511	1410
bin	0.047649172447532	700
bin	0.079415287412554	396
bin	0.11118140237758	329
bin	0.1429475173426	274
bin	0.17471363230762	214
bin	0.20647974727264	208
bin	0.23824586223766	169
bin	0.27001197720268	141
bin	0.30177809216771	139
bin	0.33354420713273	127
bin	0.36531032209775	115
bin	0.39707643706277	131
bin	0.42884255202779	108
bin	0.46060866699281	101
bin	0.49237478195783	89
bin	0.52414089692286	98
bin	0.55590701188788	85
bin	0.5876731268529	110
bin	0.61943924181792	106
bin	0.65120535678294	94
bin	0.68297147174796	93
bin	0.71473758671299	16034
statistic scenarioPRJP1.node[79].wlan[0].radio 	minSNIR:histogram
field count 145761
field mean 6162.1219365914
field stddev 45822.179384158
field sum 898197055.59949
field sqrsum 3.1158300850308e+14
field min 0.0001709947075285
field max 780605.62545079
attr source  minSNIR
attr title  "Min SNIR, histogram"
bin	-INF	0
bin	-1326.2796706549	0
bin	-1149.1982403853	0
bin	-972.11681011567	0
bin	-795.03537984604	0
bin	-617.95394957642	0
bin	-440.8725193068	0
bin	-263.79108903717	0
bin	-86.709658767546	86356
bin	90.371771502078	20622
bin	267.4532017717	8045
bin	444.53463204133	4051
bin	621.61606231095	2734
bin	798.69749258058	1673
bin	975.7789228502	1225
bin	1152.8603531198	1031
bin	1329.9417833895	915
bin	1507.0232136591	733
bin	1684.1046439287	672
bin	1861.1860741983	533
bin	2038.2675044679	550
bin	2215.3489347376	496
bin	2392.4303650072	438
bin	2569.5117952768	463
bin	2746.5932255464	417
bin	2923.6746558161	360
bin	3100.7560860857	304
bin	3277.8375163553	344
bin	3454.9189466249	321
bin	3632.0003768946	259
bin	3809.0818071642	254
bin	3986.1632374338	12965
scalar scenarioPRJP1.node[79].lo0.lo 	droppedPkBitError:count 	0
attr interpolationmode  none
attr source  dropPkBitError
attr title  "packets dropped/bit error, count"
scalar scenarioPRJP1.node[79].lo0.lo 	droppedPkBitError:sum(packetBytes) 	0
attr interpolationmode  none
attr source  dropPkBitError
attr title  "packets dropped/bit error, sum(packetBytes)"
scalar scenarioPRJP1.node[79].lo0.lo 	rcvdPkFromHL:count 	0
attr interpolationmode  none
attr source  packetReceivedFromUpper
attr title  "packets received from higher layer, count"
scalar scenarioPRJP1.node[79].lo0.lo 	rcvdPkFromHL:sum(packetBytes) 	0
attr interpolationmode  none
attr source  packetReceivedFromUpper
attr title  "packets received from higher layer, sum(packetBytes)"
scalar scenarioPRJP1.node[79].lo0.lo 	passedUpPk:count 	0
attr interpolationmode  none
attr source  packetSentToUpper
attr title  "packets passed to higher layer, count"
scalar scenarioPRJP1.node[79].lo0.lo 	passedUpPk:sum(packetBytes) 	0
attr interpolationmode  none
attr source  packetSentToUpper
attr title  "packets passed to higher layer, sum(packetBytes)"
scalar scenarioPRJP1.node[99].app 	"Total sent" 	2613
scalar scenarioPRJP1.node[99].app 	"Total received" 	203
scalar scenarioPRJP1.node[99].app 	"Total deleted" 	169
scalar scenarioPRJP1.node[99].app 	dropPk:count 	169
attr interpolationmode  none
attr source  dropPk
attr title  "packets dropped, count"
scalar scenarioPRJP1.node[99].app 	dropPk:sum(packetBytes) 	86528
attr interpolationmode  none
attr source  dropPk
attr title  "packets dropped, sum(packetBytes)"
scalar scenarioPRJP1.node[99].app 	outOfOrderPk:count 	30
attr interpolationmode  none
attr source  outOfOrderPk
attr title  "packets received out of order, count"
scalar scenarioPRJP1.node[99].app 	outOfOrderPk:sum(packetBytes) 	15360
attr interpolationmode  none
attr source  outOfOrderPk
attr title  "packets received out of order, sum(packetBytes)"
scalar scenarioPRJP1.node[99].app 	rcvdPk:count 	203
attr interpolationmode  none
attr source  rcvdPk
attr title  "packets received, count"
scalar scenarioPRJP1.node[99].app 	rcvdPk:sum(packetBytes) 	103936
attr interpolationmode  none
attr source  rcvdPk
attr title  "packets received, sum(packetBytes)"
statistic scenarioPRJP1.node[99].app 	endToEndDelay:histogram
field count 203
field mean 2.1624563072172
field stddev 4.744008285329
field sum 438.97863036509
field sqrsum 5495.4062594431
field min 0.000945247243
field max 19.124952596844
attr interpolationmode  none
attr source  messageAge(rcvdPk)
attr title  "delay, histogram"
attr unit  s
bin	-INF	0
bin	-9.1207755017055	0
bin	-7.9045460445504	0
bin	-6.6883165873952	0
bin	-5.4720871302401	0
bin	-4.255857673085	0
bin	-3.0396282159298	0
bin	-1.8233987587747	0
bin	-0.60716930161957	152
bin	0.60906015553557	6
bin	1.8252896126907	3
bin	3.0415190698458	8
bin	4.257748527001	4
bin	5.4739779841561	3
bin	6.6902074413112	6
bin	7.9064368984664	1
bin	9.1226663556215	1
bin	10.338895812777	1
bin	11.555125269932	2
bin	12.771354727087	3
bin	13.987584184242	3
bin	15.203813641397	1
bin	16.420043098552	4
bin	17.636272555707	2
bin	18.852502012863	3
bin	20.068731470018	0
bin	21.284960927173	0
bin	22.501190384328	0
bin	23.717419841483	0
bin	24.933649298638	0
bin	26.149878755793	0
bin	27.366108212949	0
scalar scenarioPRJP1.node[99].app 	sentPk:count 	2613
attr interpolationmode  none
attr source  sentPk
attr title  "packets sent, count"
scalar scenarioPRJP1.node[99].app 	sentPk:sum(packetBytes) 	1337856
attr interpolationmode  none
attr source  sentPk
attr title  "packets sent, sum(packetBytes)"
scalar scenarioPRJP1.node[99].udp 	droppedPkBadChecksum:count 	0
attr interpolationmode  none
attr title  "packets dropped (checksum error), count"
scalar scenarioPRJP1.node[99].udp 	droppedPkWrongPort:count 	0
attr interpolationmode  none
attr title  "packets dropped (wrong port), count"
scalar scenarioPRJP1.node[99].udp 	passedUpPk:count 	402
attr interpolationmode  none
attr title  "packets passed up, count"
scalar scenarioPRJP1.node[99].udp 	rcvdPk:count 	402
attr interpolationmode  none
attr source  rcvdPk
attr title  "packets received, count"
scalar scenarioPRJP1.node[99].udp 	rcvdPk:sum(packetBytes) 	209040
attr interpolationmode  none
attr source  rcvdPk
attr title  "packets received, sum(packetBytes)"
scalar scenarioPRJP1.node[99].udp 	sentPk:count 	2613
attr interpolationmode  none
attr source  sentPk
attr title  "packets sent, count"
scalar scenarioPRJP1.node[99].udp 	sentPk:sum(packetBytes) 	1358760
attr interpolationmode  none
attr source  sentPk
attr title  "packets sent, sum(packetBytes)"
scalar scenarioPRJP1.node[99].networkLayer.arp 	failedARPResolution:count 	8
attr title  "ARP failed resolutions, count"
scalar scenarioPRJP1.node[99].networkLayer.arp 	completedARPResolution:count 	790
attr title  "ARP completed resolutions, count"
scalar scenarioPRJP1.node[99].networkLayer.arp 	initiatedARPResolution:count 	88
attr title  "ARP initiated resolutions, count"
scalar scenarioPRJP1.node[99].networkLayer.arp 	sentReply:count 	71
attr title  "ARP replies sent, count"
scalar scenarioPRJP1.node[99].networkLayer.arp 	sentReq:count 	127
attr title  "ARP request sent, count"
scalar scenarioPRJP1.node[99].mobility 	startTime 	9.8
scalar scenarioPRJP1.node[99].mobility 	totalTime 	940.1
scalar scenarioPRJP1.node[99].mobility 	stopTime 	950
scalar scenarioPRJP1.node[99].mobility 	minSpeed 	2.4757209543082e-13
scalar scenarioPRJP1.node[99].mobility 	maxSpeed 	15.923778605898
scalar scenarioPRJP1.node[99].mobility 	totalDistance 	8545.3854621671
scalar scenarioPRJP1.node[99].mobility 	totalCO2Emission 	2199.1653480069
scalar scenarioPRJP1.node[99].wlan[0].mgmt 	dataQueueLen:max 	25
attr interpolationmode  sample-hold
attr title  "data queue length, max"
scalar scenarioPRJP1.node[99].wlan[0].mgmt 	dataQueueLen:timeavg 	0
attr interpolationmode  sample-hold
attr title  "data queue length, timeavg"
scalar scenarioPRJP1.node[99].wlan[0].mgmt 	dropPkByQueue:count 	0
attr interpolationmode  none
attr source  dropPkByQueue
attr title  "packets dropped by queue, count"
scalar scenarioPRJP1.node[99].wlan[0].mgmt 	dropPkByQueue:sum(packetBytes) 	0
attr interpolationmode  none
attr source  dropPkByQueue
attr title  "packets dropped by queue, sum(packetBytes)"
scalar scenarioPRJP1.node[99].wlan[0].mac 	"number of received packets" 	10913
scalar scenarioPRJP1.node[99].wlan[0].mac 	"number of collisions" 	31644
scalar scenarioPRJP1.node[99].wlan[0].mac 	"number of internal collisions" 	0
scalar scenarioPRJP1.node[99].wlan[0].mac 	"number of retry for AC 0" 	8417
scalar scenarioPRJP1.node[99].wlan[0].mac 	"number of retry for AC 1" 	1
scalar scenarioPRJP1.node[99].wlan[0].mac 	"number of retry for AC 2" 	0
scalar scenarioPRJP1.node[99].wlan[0].mac 	"number of retry for AC 3" 	0
scalar scenarioPRJP1.node[99].wlan[0].mac 	"sent and received bits" 	20837056
scalar scenarioPRJP1.node[99].wlan[0].mac 	"sent packet within AC 0" 	6395
scalar scenarioPRJP1.node[99].wlan[0].mac 	"sent packet within AC 1" 	2
scalar scenarioPRJP1.node[99].wlan[0].mac 	"sent packet within AC 2" 	0
scalar scenarioPRJP1.node[99].wlan[0].mac 	"sent packet within AC 3" 	0
scalar scenarioPRJP1.node[99].wlan[0].mac 	"sent in TXOP " 	0
scalar scenarioPRJP1.node[99].wlan[0].mac 	"sentWithoutRetry AC 0" 	6191
scalar scenarioPRJP1.node[99].wlan[0].mac 	"sentWithoutRetry AC 1" 	1
scalar scenarioPRJP1.node[99].wlan[0].mac 	"sentWithoutRetry AC 2" 	0
scalar scenarioPRJP1.node[99].wlan[0].mac 	"sentWithoutRetry AC 3" 	0
scalar scenarioPRJP1.node[99].wlan[0].mac 	"numGivenUp AC 0" 	1350
scalar scenarioPRJP1.node[99].wlan[0].mac 	"numGivenUp AC 1" 	0
scalar scenarioPRJP1.node[99].wlan[0].mac 	"numGivenUp AC 2" 	0
scalar scenarioPRJP1.node[99].wlan[0].mac 	"numGivenUp AC 3" 	0
scalar scenarioPRJP1.node[99].wlan[0].mac 	"numDropped AC 0" 	0
scalar scenarioPRJP1.node[99].wlan[0].mac 	"numDropped AC 1" 	0
scalar scenarioPRJP1.node[99].wlan[0].mac 	"numDropped AC 2" 	0
scalar scenarioPRJP1.node[99].wlan[0].mac 	"numDropped AC 3" 	0
scalar scenarioPRJP1.node[99].wlan[0].mac 	rcvdPkFromLL:count 	248051
attr interpolationmode  none
attr source  packetReceivedFromLower
attr title  "packets received from lower layer, count"
scalar scenarioPRJP1.node[99].wlan[0].mac 	rcvdPkFromLL:sum(packetBytes) 	37366118
attr interpolationmode  none
attr source  packetReceivedFromLower
attr title  "packets received from lower layer, sum(packetBytes)"
scalar scenarioPRJP1.node[99].wlan[0].mac 	sentDownPk:count 	46548
attr interpolationmode  none
attr source  packetSentToLower
attr title  "packets sent to lower layer, count"
scalar scenarioPRJP1.node[99].wlan[0].mac 	sentDownPk:sum(packetBytes) 	6946062
attr interpolationmode  none
attr source  packetSentToLower
attr title  "packets sent to lower layer, sum(packetBytes)"
scalar scenarioPRJP1.node[99].wlan[0].mac 	rcvdPkFromHL:count 	27217
attr interpolationmode  none
attr source  packetReceivedFromUpper
attr title  "packets received from higher layer, count"
scalar scenarioPRJP1.node[99].wlan[0].mac 	rcvdPkFromHL:sum(packetBytes) 	3183660
attr interpolationmode  none
attr source  packetReceivedFromUpper
attr title  "packets received from higher layer, sum(packetBytes)"
scalar scenarioPRJP1.node[99].wlan[0].mac 	passedUpPk:count 	112612
attr interpolationmode  none
attr source  packetSentToUpper
attr title  "packets passed to higher layer, count"
scalar scenarioPRJP1.node[99].wlan[0].mac 	passedUpPk:sum(packetBytes) 	10504068
attr interpolationmode  none
attr source  packetSentToUpper
attr title  "packets passed to higher layer, sum(packetBytes)"
statistic scenarioPRJP1.node[99].wlan[0].radio 	radioChannel:histogram
field count 1
field mean 3
field stddev -nan
field sum 3
field sqrsum 9
field min 3
field max 3
attr interpolationmode  sample-hold
attr source  radioChannelChanged
attr title  "Radio channel, histogram"
bin	-INF	0
bin	2	0
bin	3	1
bin	4	0
scalar scenarioPRJP1.node[99].wlan[0].radio 	transmissionState:count 	186192
attr interpolationmode  sample-hold
attr source  transmissionStateChanged
attr title  "Radio transmission state, count"
scalar scenarioPRJP1.node[99].wlan[0].radio 	receptionState:count 	594975
attr interpolationmode  sample-hold
attr source  receptionStateChanged
attr title  "Radio reception state, count"
scalar scenarioPRJP1.node[99].wlan[0].radio 	radioMode:count 	93098
attr interpolationmode  sample-hold
attr source  radioModeChanged
attr title  "Radio mode, count"
statistic scenarioPRJP1.node[99].wlan[0].radio 	symbolErrorRate:histogram
field count 0
field mean -nan
field stddev -nan
field sum 0
field sqrsum 0
field min -nan
field max -nan
attr source  symbolErrorRate
attr title  "Symbol error rate, histogram"
bin	-INF	0
bin	-0.5	0
bin	-0.46666666666667	0
bin	-0.43333333333333	0
bin	-0.4	0
bin	-0.36666666666667	0
bin	-0.33333333333333	0
bin	-0.3	0
bin	-0.26666666666667	0
bin	-0.23333333333333	0
bin	-0.2	0
bin	-0.16666666666667	0
bin	-0.13333333333333	0
bin	-0.1	0
bin	-0.066666666666667	0
bin	-0.033333333333333	0
bin	0	0
bin	0.033333333333333	0
bin	0.066666666666667	0
bin	0.1	0
bin	0.13333333333333	0
bin	0.16666666666667	0
bin	0.2	0
bin	0.23333333333333	0
bin	0.26666666666667	0
bin	0.3	0
bin	0.33333333333333	0
bin	0.36666666666667	0
bin	0.4	0
bin	0.43333333333333	0
bin	0.46666666666667	0
bin	0.5	0
statistic scenarioPRJP1.node[99].wlan[0].radio 	bitErrorRate:histogram
field count 0
field mean -nan
field stddev -nan
field sum 0
field sqrsum 0
field min -nan
field max -nan
attr source  bitErrorRate
attr title  "Bit error rate, histogram"
bin	-INF	0
bin	-0.5	0
bin	-0.46666666666667	0
bin	-0.43333333333333	0
bin	-0.4	0
bin	-0.36666666666667	0
bin	-0.33333333333333	0
bin	-0.3	0
bin	-0.26666666666667	0
bin	-0.23333333333333	0
bin	-0.2	0
bin	-0.16666666666667	0
bin	-0.13333333333333	0
bin	-0.1	0
bin	-0.066666666666667	0
bin	-0.033333333333333	0
bin	0	0
bin	0.033333333333333	0
bin	0.066666666666667	0
bin	0.1	0
bin	0.13333333333333	0
bin	0.16666666666667	0
bin	0.2	0
bin	0.23333333333333	0
bin	0.26666666666667	0
bin	0.3	0
bin	0.33333333333333	0
bin	0.36666666666667	0
bin	0.4	0
bin	0.43333333333333	0
bin	0.46666666666667	0
bin	0.5	0
statistic scenarioPRJP1.node[99].wlan[0].radio 	packetErrorRate:histogram
field count 248051
field mean 0.10833912102961
field stddev 0.3029600350139
field sum 26873.627310515
field sqrsum 25678.680539114
field min 0
field max 1
attr source  packetErrorRate
attr title  "Packet error rate, histogram"
bin	-INF	0
bin	-0.5	0
bin	-0.43333333333333	0
bin	-0.36666666666667	0
bin	-0.3	0
bin	-0.23333333333333	0
bin	-0.16666666666667	0
bin	-0.1	0
bin	-0.033333333333333	216169
bin	0.033333333333333	2104
bin	0.1	1002
bin	0.16666666666667	658
bin	0.23333333333333	534
bin	0.3	434
bin	0.36666666666667	378
bin	0.43333333333333	308
bin	0.5	317
bin	0.56666666666667	306
bin	0.63333333333333	315
bin	0.7	315
bin	0.76666666666667	305
bin	0.83333333333333	407
bin	0.9	649
bin	0.96666666666667	23850
bin	1.0333333333333	0
bin	1.1	0
bin	1.1666666666667	0
bin	1.2333333333333	0
bin	1.3	0
bin	1.3666666666667	0
bin	1.4333333333333	0
bin	1.5	0
statistic scenarioPRJP1.node[99].wlan[0].radio 	minSNIR:histogram
field count 248051
field mean 10191.103129309
field stddev 54341.255937531
field sum 2527913322.3282
field sqrsum 7.5824695399798e+14
field min 0.00016850501808495
field max 2374298.5149971
attr source  minSNIR
attr title  "Min SNIR, histogram"
bin	-INF	0
bin	-343.71169900016	0
bin	-297.74134389291	0
bin	-251.77098878566	0
bin	-205.80063367841	0
bin	-159.83027857116	0
bin	-113.85992346391	0
bin	-67.889568356659	0
bin	-21.919213249408	96894
bin	24.051141857842	25377
bin	70.021496965093	10861
bin	115.99185207234	11918
bin	161.96220717959	8879
bin	207.93256228684	6125
bin	253.9029173941	4484
bin	299.87327250135	3815
bin	345.8436276086	3260
bin	391.81398271585	2690
bin	437.7843378231	2240
bin	483.75469293035	1933
bin	529.7250480376	1818
bin	575.69540314485	1475
bin	621.6657582521	1178
bin	667.63611335935	1301
bin	713.6064684666	1167
bin	759.57682357385	1012
bin	805.5471786811	918
bin	851.51753378835	840
bin	897.4878888956	870
bin	943.45824400285	873
bin	989.42859911011	709
bin	1035.3989542174	57414
scalar scenarioPRJP1.node[99].lo0.lo 	droppedPkBitError:count 	0
attr interpolationmode  none
attr source  dropPkBitError
attr title  "packets dropped/bit error, count"
scalar scenarioPRJP1.node[99].lo0.lo 	droppedPkBitError:sum(packetBytes) 	0
attr interpolationmode  none
attr source  dropPkBitError
attr title  "packets dropped/bit error, sum(packetBytes)"
scalar scenarioPRJP1.node[99].lo0.lo 	rcvdPkFromHL:count 	2
attr interpolationmode  none
attr source  packetReceivedFromUpper
attr title  "packets received from higher layer, count"
scalar scenarioPRJP1.node[99].lo0.lo 	rcvdPkFromHL:sum(packetBytes) 	112
attr interpolationmode  none
attr source  packetReceivedFromUpper
attr title  "packets received from higher layer, sum(packetBytes)"
scalar scenarioPRJP1.node[99].lo0.lo 	passedUpPk:count 	2
attr interpolationmode  none
attr source  packetSentToUpper
attr title  "packets passed to higher layer, count"
scalar scenarioPRJP1.node[99].lo0.lo 	passedUpPk:sum(packetBytes) 	112
attr interpolationmode  none
attr source  packetSentToUpper
attr title  "packets passed to higher layer, sum(packetBytes)"
