version 2
run AODVRouting-TRG-100n-9-20150730-14:14:52-9580
attr configname AODVRouting-TRG-100n
attr datetime 20150730-14:14:52
attr experiment AODVRouting-TRG-100n
attr inifile omnetpp.ini
attr iterationvars ""
attr iterationvars2 $repetition=9
attr measurement ""
attr network Prj_Part1_propag.scenarioPRJP1
attr processid 9580
attr repetition 9
attr replication #9
attr resultdir results
attr runnumber 9
attr seedset 9

scalar scenarioPRJP1.node[63].app 	"Total sent" 	197
scalar scenarioPRJP1.node[63].app 	"Total received" 	19
scalar scenarioPRJP1.node[63].app 	"Total deleted" 	0
scalar scenarioPRJP1.node[63].app 	dropPk:count 	0
attr interpolationmode  none
attr source  dropPk
attr title  "packets dropped, count"
scalar scenarioPRJP1.node[63].app 	dropPk:sum(packetBytes) 	0
attr interpolationmode  none
attr source  dropPk
attr title  "packets dropped, sum(packetBytes)"
scalar scenarioPRJP1.node[63].app 	outOfOrderPk:count 	2
attr interpolationmode  none
attr source  outOfOrderPk
attr title  "packets received out of order, count"
scalar scenarioPRJP1.node[63].app 	outOfOrderPk:sum(packetBytes) 	1024
attr interpolationmode  none
attr source  outOfOrderPk
attr title  "packets received out of order, sum(packetBytes)"
scalar scenarioPRJP1.node[63].app 	rcvdPk:count 	19
attr interpolationmode  none
attr source  rcvdPk
attr title  "packets received, count"
scalar scenarioPRJP1.node[63].app 	rcvdPk:sum(packetBytes) 	9728
attr interpolationmode  none
attr source  rcvdPk
attr title  "packets received, sum(packetBytes)"
statistic scenarioPRJP1.node[63].app 	endToEndDelay:histogram
field count 19
field mean 0.61889915219763
field stddev 2.0346517868115
field sum 11.759083891755
field sqrsum 81.794229135582
field min 0.001010571758
field max 8.868977358313
attr interpolationmode  none
attr source  messageAge(rcvdPk)
attr title  "delay, histogram"
attr unit  s
bin	-INF	0
bin	-4.4329728215195	0
bin	-3.8417750357492	0
bin	-3.2505772499788	0
bin	-2.6593794642085	0
bin	-2.0681816784382	0
bin	-1.4769838926678	0
bin	-0.8857861068975	0
bin	-0.29458832112717	15
bin	0.29660946464317	1
bin	0.8878072504135	2
bin	1.4790050361838	0
bin	2.0702028219542	0
bin	2.6614006077245	0
bin	3.2525983934948	0
bin	3.8437961792652	0
bin	4.4349939650355	0
bin	5.0261917508058	0
bin	5.6173895365762	0
bin	6.2085873223465	0
bin	6.7997851081168	0
bin	7.3909828938872	0
bin	7.9821806796575	0
bin	8.5733784654278	1
bin	9.1645762511982	0
bin	9.7557740369685	0
bin	10.346971822739	0
bin	10.938169608509	0
bin	11.52936739428	0
bin	12.12056518005	0
bin	12.71176296582	0
bin	13.302960751591	0
scalar scenarioPRJP1.node[63].app 	sentPk:count 	197
attr interpolationmode  none
attr source  sentPk
attr title  "packets sent, count"
scalar scenarioPRJP1.node[63].app 	sentPk:sum(packetBytes) 	100864
attr interpolationmode  none
attr source  sentPk
attr title  "packets sent, sum(packetBytes)"
scalar scenarioPRJP1.node[63].udp 	droppedPkBadChecksum:count 	0
attr interpolationmode  none
attr title  "packets dropped (checksum error), count"
scalar scenarioPRJP1.node[63].udp 	droppedPkWrongPort:count 	0
attr interpolationmode  none
attr title  "packets dropped (wrong port), count"
scalar scenarioPRJP1.node[63].udp 	passedUpPk:count 	21
attr interpolationmode  none
attr title  "packets passed up, count"
scalar scenarioPRJP1.node[63].udp 	rcvdPk:count 	21
attr interpolationmode  none
attr source  rcvdPk
attr title  "packets received, count"
scalar scenarioPRJP1.node[63].udp 	rcvdPk:sum(packetBytes) 	10920
attr interpolationmode  none
attr source  rcvdPk
attr title  "packets received, sum(packetBytes)"
scalar scenarioPRJP1.node[63].udp 	sentPk:count 	197
attr interpolationmode  none
attr source  sentPk
attr title  "packets sent, count"
scalar scenarioPRJP1.node[63].udp 	sentPk:sum(packetBytes) 	102440
attr interpolationmode  none
attr source  sentPk
attr title  "packets sent, sum(packetBytes)"
scalar scenarioPRJP1.node[63].networkLayer.arp 	failedARPResolution:count 	0
attr title  "ARP failed resolutions, count"
scalar scenarioPRJP1.node[63].networkLayer.arp 	completedARPResolution:count 	108
attr title  "ARP completed resolutions, count"
scalar scenarioPRJP1.node[63].networkLayer.arp 	initiatedARPResolution:count 	8
attr title  "ARP initiated resolutions, count"
scalar scenarioPRJP1.node[63].networkLayer.arp 	sentReply:count 	10
attr title  "ARP replies sent, count"
scalar scenarioPRJP1.node[63].networkLayer.arp 	sentReq:count 	10
attr title  "ARP request sent, count"
scalar scenarioPRJP1.node[63].mobility 	startTime 	7.3
scalar scenarioPRJP1.node[63].mobility 	totalTime 	90.7
scalar scenarioPRJP1.node[63].mobility 	stopTime 	98.1
scalar scenarioPRJP1.node[63].mobility 	minSpeed 	0.26915588072082
scalar scenarioPRJP1.node[63].mobility 	maxSpeed 	21.228191812016
scalar scenarioPRJP1.node[63].mobility 	totalDistance 	1481.2694820694
scalar scenarioPRJP1.node[63].mobility 	totalCO2Emission 	403.92117076182
scalar scenarioPRJP1.node[63].wlan[0].mgmt 	dataQueueLen:max 	1
attr interpolationmode  sample-hold
attr title  "data queue length, max"
scalar scenarioPRJP1.node[63].wlan[0].mgmt 	dataQueueLen:timeavg 	0
attr interpolationmode  sample-hold
attr title  "data queue length, timeavg"
scalar scenarioPRJP1.node[63].wlan[0].mgmt 	dropPkByQueue:count 	0
attr interpolationmode  none
attr source  dropPkByQueue
attr title  "packets dropped by queue, count"
scalar scenarioPRJP1.node[63].wlan[0].mgmt 	dropPkByQueue:sum(packetBytes) 	0
attr interpolationmode  none
attr source  dropPkByQueue
attr title  "packets dropped by queue, sum(packetBytes)"
scalar scenarioPRJP1.node[63].wlan[0].mac 	"number of received packets" 	232
scalar scenarioPRJP1.node[63].wlan[0].mac 	"number of collisions" 	1023
scalar scenarioPRJP1.node[63].wlan[0].mac 	"number of internal collisions" 	0
scalar scenarioPRJP1.node[63].wlan[0].mac 	"number of retry for AC 0" 	289
scalar scenarioPRJP1.node[63].wlan[0].mac 	"number of retry for AC 1" 	0
scalar scenarioPRJP1.node[63].wlan[0].mac 	"number of retry for AC 2" 	0
scalar scenarioPRJP1.node[63].wlan[0].mac 	"number of retry for AC 3" 	0
scalar scenarioPRJP1.node[63].wlan[0].mac 	"sent and received bits" 	946208
scalar scenarioPRJP1.node[63].wlan[0].mac 	"sent packet within AC 0" 	42
scalar scenarioPRJP1.node[63].wlan[0].mac 	"sent packet within AC 1" 	0
scalar scenarioPRJP1.node[63].wlan[0].mac 	"sent packet within AC 2" 	0
scalar scenarioPRJP1.node[63].wlan[0].mac 	"sent packet within AC 3" 	0
scalar scenarioPRJP1.node[63].wlan[0].mac 	"sent in TXOP " 	0
scalar scenarioPRJP1.node[63].wlan[0].mac 	"sentWithoutRetry AC 0" 	34
scalar scenarioPRJP1.node[63].wlan[0].mac 	"sentWithoutRetry AC 1" 	0
scalar scenarioPRJP1.node[63].wlan[0].mac 	"sentWithoutRetry AC 2" 	0
scalar scenarioPRJP1.node[63].wlan[0].mac 	"sentWithoutRetry AC 3" 	0
scalar scenarioPRJP1.node[63].wlan[0].mac 	"numGivenUp AC 0" 	45
scalar scenarioPRJP1.node[63].wlan[0].mac 	"numGivenUp AC 1" 	0
scalar scenarioPRJP1.node[63].wlan[0].mac 	"numGivenUp AC 2" 	0
scalar scenarioPRJP1.node[63].wlan[0].mac 	"numGivenUp AC 3" 	0
scalar scenarioPRJP1.node[63].wlan[0].mac 	"numDropped AC 0" 	0
scalar scenarioPRJP1.node[63].wlan[0].mac 	"numDropped AC 1" 	0
scalar scenarioPRJP1.node[63].wlan[0].mac 	"numDropped AC 2" 	0
scalar scenarioPRJP1.node[63].wlan[0].mac 	"numDropped AC 3" 	0
scalar scenarioPRJP1.node[63].wlan[0].mac 	rcvdPkFromLL:count 	11771
attr interpolationmode  none
attr source  packetReceivedFromLower
attr title  "packets received from lower layer, count"
scalar scenarioPRJP1.node[63].wlan[0].mac 	rcvdPkFromLL:sum(packetBytes) 	1570474
attr interpolationmode  none
attr source  packetReceivedFromLower
attr title  "packets received from lower layer, sum(packetBytes)"
scalar scenarioPRJP1.node[63].wlan[0].mac 	sentDownPk:count 	1767
attr interpolationmode  none
attr source  packetSentToLower
attr title  "packets sent to lower layer, count"
scalar scenarioPRJP1.node[63].wlan[0].mac 	sentDownPk:sum(packetBytes) 	229408
attr interpolationmode  none
attr source  packetSentToLower
attr title  "packets sent to lower layer, sum(packetBytes)"
scalar scenarioPRJP1.node[63].wlan[0].mac 	rcvdPkFromHL:count 	1246
attr interpolationmode  none
attr source  packetReceivedFromUpper
attr title  "packets received from higher layer, count"
scalar scenarioPRJP1.node[63].wlan[0].mac 	rcvdPkFromHL:sum(packetBytes) 	132268
attr interpolationmode  none
attr source  packetReceivedFromUpper
attr title  "packets received from higher layer, sum(packetBytes)"
scalar scenarioPRJP1.node[63].wlan[0].mac 	passedUpPk:count 	7620
attr interpolationmode  none
attr source  packetSentToUpper
attr title  "packets passed to higher layer, count"
scalar scenarioPRJP1.node[63].wlan[0].mac 	passedUpPk:sum(packetBytes) 	689280
attr interpolationmode  none
attr source  packetSentToUpper
attr title  "packets passed to higher layer, sum(packetBytes)"
statistic scenarioPRJP1.node[63].wlan[0].radio 	radioChannel:histogram
field count 1
field mean 3
field stddev nan
field sum 3
field sqrsum 9
field min 3
field max 3
attr interpolationmode  sample-hold
attr source  radioChannelChanged
attr title  "Radio channel, histogram"
bin	-INF	0
bin	2	0
bin	3	1
bin	4	0
scalar scenarioPRJP1.node[63].wlan[0].radio 	transmissionState:count 	7068
attr interpolationmode  sample-hold
attr source  transmissionStateChanged
attr title  "Radio transmission state, count"
scalar scenarioPRJP1.node[63].wlan[0].radio 	receptionState:count 	27319
attr interpolationmode  sample-hold
attr source  receptionStateChanged
attr title  "Radio reception state, count"
scalar scenarioPRJP1.node[63].wlan[0].radio 	radioMode:count 	3536
attr interpolationmode  sample-hold
attr source  radioModeChanged
attr title  "Radio mode, count"
statistic scenarioPRJP1.node[63].wlan[0].radio 	symbolErrorRate:histogram
field count 0
field mean nan
field stddev nan
field sum 0
field sqrsum 0
field min nan
field max nan
attr source  symbolErrorRate
attr title  "Symbol error rate, histogram"
bin	-INF	0
bin	-0.5	0
bin	-0.46666666666667	0
bin	-0.43333333333333	0
bin	-0.4	0
bin	-0.36666666666667	0
bin	-0.33333333333333	0
bin	-0.3	0
bin	-0.26666666666667	0
bin	-0.23333333333333	0
bin	-0.2	0
bin	-0.16666666666667	0
bin	-0.13333333333333	0
bin	-0.1	0
bin	-0.066666666666667	0
bin	-0.033333333333333	0
bin	0	0
bin	0.033333333333333	0
bin	0.066666666666667	0
bin	0.1	0
bin	0.13333333333333	0
bin	0.16666666666667	0
bin	0.2	0
bin	0.23333333333333	0
bin	0.26666666666667	0
bin	0.3	0
bin	0.33333333333333	0
bin	0.36666666666667	0
bin	0.4	0
bin	0.43333333333333	0
bin	0.46666666666667	0
bin	0.5	0
statistic scenarioPRJP1.node[63].wlan[0].radio 	bitErrorRate:histogram
field count 0
field mean nan
field stddev nan
field sum 0
field sqrsum 0
field min nan
field max nan
attr source  bitErrorRate
attr title  "Bit error rate, histogram"
bin	-INF	0
bin	-0.5	0
bin	-0.46666666666667	0
bin	-0.43333333333333	0
bin	-0.4	0
bin	-0.36666666666667	0
bin	-0.33333333333333	0
bin	-0.3	0
bin	-0.26666666666667	0
bin	-0.23333333333333	0
bin	-0.2	0
bin	-0.16666666666667	0
bin	-0.13333333333333	0
bin	-0.1	0
bin	-0.066666666666667	0
bin	-0.033333333333333	0
bin	0	0
bin	0.033333333333333	0
bin	0.066666666666667	0
bin	0.1	0
bin	0.13333333333333	0
bin	0.16666666666667	0
bin	0.2	0
bin	0.23333333333333	0
bin	0.26666666666667	0
bin	0.3	0
bin	0.33333333333333	0
bin	0.36666666666667	0
bin	0.4	0
bin	0.43333333333333	0
bin	0.46666666666667	0
bin	0.5	0
statistic scenarioPRJP1.node[63].wlan[0].radio 	packetErrorRate:histogram
field count 11771
field mean 0.068593210964081
field stddev 0.24549289176125
field sum 807.41068625819
field sqrsum 764.72265562256
field min 0
field max 1
attr source  packetErrorRate
attr title  "Packet error rate, histogram"
bin	-INF	934
bin	-3.0013325158507e-10	0
bin	-2.6011548470706e-10	0
bin	-2.2009771782905e-10	0
bin	-1.8007995095104e-10	0
bin	-1.4006218407303e-10	0
bin	-1.0004441719502e-10	0
bin	-6.0026650317013e-11	0
bin	-2.0008883439004e-11	9337
bin	2.0008883439004e-11	50
bin	6.0026650317013e-11	26
bin	1.0004441719502e-10	22
bin	1.4006218407303e-10	11
bin	1.8007995095104e-10	14
bin	2.2009771782905e-10	6
bin	2.6011548470706e-10	10
bin	3.0013325158507e-10	6
bin	3.4015101846308e-10	11
bin	3.8016878534108e-10	5
bin	4.2018655221909e-10	6
bin	4.602043190971e-10	3
bin	5.0022208597511e-10	9
bin	5.4023985285312e-10	5
bin	5.8025761973113e-10	3
bin	6.2027538660914e-10	3
bin	6.6029315348715e-10	2
bin	7.0031092036515e-10	3
bin	7.4032868724316e-10	2
bin	7.8034645412117e-10	1
bin	8.2036422099918e-10	1
bin	8.6038198787719e-10	4
bin	9.003997547552e-10	1297
statistic scenarioPRJP1.node[63].wlan[0].radio 	minSNIR:histogram
field count 11771
field mean 1626.2786868787
field stddev 16501.587692416
field sum 19142926.423249
field sqrsum 3236130938527.4
field min 0.0083826683470012
field max 751073.87073664
attr source  minSNIR
attr title  "Min SNIR, histogram"
bin	-INF	0
bin	-1885.1515198583	0
bin	-1632.7212538799	0
bin	-1380.2909879015	0
bin	-1127.8607219231	0
bin	-875.43045594468	0
bin	-623.00018996627	0
bin	-370.56992398786	0
bin	-118.13965800945	7471
bin	134.29060796896	2052
bin	386.72087394737	522
bin	639.15113992578	274
bin	891.58140590419	164
bin	1144.0116718826	148
bin	1396.441937861	126
bin	1648.8722038394	97
bin	1901.3024698178	68
bin	2153.7327357962	55
bin	2406.1630017746	49
bin	2658.5932677531	54
bin	2911.0235337315	29
bin	3163.4537997099	26
bin	3415.8840656883	40
bin	3668.3143316667	28
bin	3920.7445976451	24
bin	4173.1748636235	28
bin	4425.6051296019	31
bin	4678.0353955803	18
bin	4930.4656615587	14
bin	5182.8959275372	12
bin	5435.3261935156	19
bin	5687.756459494	422
scalar scenarioPRJP1.node[63].lo0.lo 	droppedPkBitError:count 	0
attr interpolationmode  none
attr source  dropPkBitError
attr title  "packets dropped/bit error, count"
scalar scenarioPRJP1.node[63].lo0.lo 	droppedPkBitError:sum(packetBytes) 	0
attr interpolationmode  none
attr source  dropPkBitError
attr title  "packets dropped/bit error, sum(packetBytes)"
scalar scenarioPRJP1.node[63].lo0.lo 	rcvdPkFromHL:count 	0
attr interpolationmode  none
attr source  packetReceivedFromUpper
attr title  "packets received from higher layer, count"
scalar scenarioPRJP1.node[63].lo0.lo 	rcvdPkFromHL:sum(packetBytes) 	0
attr interpolationmode  none
attr source  packetReceivedFromUpper
attr title  "packets received from higher layer, sum(packetBytes)"
scalar scenarioPRJP1.node[63].lo0.lo 	passedUpPk:count 	0
attr interpolationmode  none
attr source  packetSentToUpper
attr title  "packets passed to higher layer, count"
scalar scenarioPRJP1.node[63].lo0.lo 	passedUpPk:sum(packetBytes) 	0
attr interpolationmode  none
attr source  packetSentToUpper
attr title  "packets passed to higher layer, sum(packetBytes)"
scalar scenarioPRJP1.node[99].app 	"Total sent" 	367
scalar scenarioPRJP1.node[99].app 	"Total received" 	11
scalar scenarioPRJP1.node[99].app 	"Total deleted" 	1
scalar scenarioPRJP1.node[99].app 	dropPk:count 	1
attr interpolationmode  none
attr source  dropPk
attr title  "packets dropped, count"
scalar scenarioPRJP1.node[99].app 	dropPk:sum(packetBytes) 	512
attr interpolationmode  none
attr source  dropPk
attr title  "packets dropped, sum(packetBytes)"
scalar scenarioPRJP1.node[99].app 	outOfOrderPk:count 	1
attr interpolationmode  none
attr source  outOfOrderPk
attr title  "packets received out of order, count"
scalar scenarioPRJP1.node[99].app 	outOfOrderPk:sum(packetBytes) 	512
attr interpolationmode  none
attr source  outOfOrderPk
attr title  "packets received out of order, sum(packetBytes)"
scalar scenarioPRJP1.node[99].app 	rcvdPk:count 	11
attr interpolationmode  none
attr source  rcvdPk
attr title  "packets received, count"
scalar scenarioPRJP1.node[99].app 	rcvdPk:sum(packetBytes) 	5632
attr interpolationmode  none
attr source  rcvdPk
attr title  "packets received, sum(packetBytes)"
statistic scenarioPRJP1.node[99].app 	endToEndDelay:histogram
field count 11
field mean 0.043415927677273
field stddev 0.11275546112729
field sum 0.47757520445
field sqrsum 0.14787231067714
field min 0.000958011007
field max 0.379827151304
attr interpolationmode  none
attr source  messageAge(rcvdPk)
attr title  "delay, histogram"
attr unit  s
bin	-INF	0
bin	-0.1884765591415	0
bin	-0.16321861645503	0
bin	-0.13796067376857	0
bin	-0.1127027310821	0
bin	-0.087444788395633	0
bin	-0.062186845709167	0
bin	-0.0369289030227	0
bin	-0.011670960336233	9
bin	0.013586982350233	0
bin	0.0388449250367	1
bin	0.064102867723167	0
bin	0.089360810409633	0
bin	0.1146187530961	0
bin	0.13987669578257	0
bin	0.16513463846903	0
bin	0.1903925811555	0
bin	0.21565052384197	0
bin	0.24090846652843	0
bin	0.2661664092149	0
bin	0.29142435190137	0
bin	0.31668229458783	0
bin	0.3419402372743	0
bin	0.36719817996077	1
bin	0.39245612264723	0
bin	0.4177140653337	0
bin	0.44297200802017	0
bin	0.46822995070663	0
bin	0.4934878933931	0
bin	0.51874583607957	0
bin	0.54400377876603	0
bin	0.5692617214525	0
scalar scenarioPRJP1.node[99].app 	sentPk:count 	367
attr interpolationmode  none
attr source  sentPk
attr title  "packets sent, count"
scalar scenarioPRJP1.node[99].app 	sentPk:sum(packetBytes) 	187904
attr interpolationmode  none
attr source  sentPk
attr title  "packets sent, sum(packetBytes)"
scalar scenarioPRJP1.node[99].udp 	droppedPkBadChecksum:count 	0
attr interpolationmode  none
attr title  "packets dropped (checksum error), count"
scalar scenarioPRJP1.node[99].udp 	droppedPkWrongPort:count 	0
attr interpolationmode  none
attr title  "packets dropped (wrong port), count"
scalar scenarioPRJP1.node[99].udp 	passedUpPk:count 	13
attr interpolationmode  none
attr title  "packets passed up, count"
scalar scenarioPRJP1.node[99].udp 	rcvdPk:count 	13
attr interpolationmode  none
attr source  rcvdPk
attr title  "packets received, count"
scalar scenarioPRJP1.node[99].udp 	rcvdPk:sum(packetBytes) 	6760
attr interpolationmode  none
attr source  rcvdPk
attr title  "packets received, sum(packetBytes)"
scalar scenarioPRJP1.node[99].udp 	sentPk:count 	367
attr interpolationmode  none
attr source  sentPk
attr title  "packets sent, count"
scalar scenarioPRJP1.node[99].udp 	sentPk:sum(packetBytes) 	190840
attr interpolationmode  none
attr source  sentPk
attr title  "packets sent, sum(packetBytes)"
scalar scenarioPRJP1.node[99].networkLayer.arp 	failedARPResolution:count 	0
attr title  "ARP failed resolutions, count"
scalar scenarioPRJP1.node[99].networkLayer.arp 	completedARPResolution:count 	70
attr title  "ARP completed resolutions, count"
scalar scenarioPRJP1.node[99].networkLayer.arp 	initiatedARPResolution:count 	11
attr title  "ARP initiated resolutions, count"
scalar scenarioPRJP1.node[99].networkLayer.arp 	sentReply:count 	7
attr title  "ARP replies sent, count"
scalar scenarioPRJP1.node[99].networkLayer.arp 	sentReq:count 	13
attr title  "ARP request sent, count"
scalar scenarioPRJP1.node[99].mobility 	startTime 	9.9
scalar scenarioPRJP1.node[99].mobility 	totalTime 	149.1
scalar scenarioPRJP1.node[99].mobility 	stopTime 	159.1
scalar scenarioPRJP1.node[99].mobility 	minSpeed 	2.4758626743077e-13
scalar scenarioPRJP1.node[99].mobility 	maxSpeed 	19.036931346541
scalar scenarioPRJP1.node[99].mobility 	totalDistance 	1483.3435608295
scalar scenarioPRJP1.node[99].mobility 	totalCO2Emission 	463.28393456654
scalar scenarioPRJP1.node[99].wlan[0].mgmt 	dataQueueLen:max 	2
attr interpolationmode  sample-hold
attr title  "data queue length, max"
scalar scenarioPRJP1.node[99].wlan[0].mgmt 	dataQueueLen:timeavg 	0
attr interpolationmode  sample-hold
attr title  "data queue length, timeavg"
scalar scenarioPRJP1.node[99].wlan[0].mgmt 	dropPkByQueue:count 	0
attr interpolationmode  none
attr source  dropPkByQueue
attr title  "packets dropped by queue, count"
scalar scenarioPRJP1.node[99].wlan[0].mgmt 	dropPkByQueue:sum(packetBytes) 	0
attr interpolationmode  none
attr source  dropPkByQueue
attr title  "packets dropped by queue, sum(packetBytes)"
scalar scenarioPRJP1.node[99].wlan[0].mac 	"number of received packets" 	239
scalar scenarioPRJP1.node[99].wlan[0].mac 	"number of collisions" 	1211
scalar scenarioPRJP1.node[99].wlan[0].mac 	"number of internal collisions" 	0
scalar scenarioPRJP1.node[99].wlan[0].mac 	"number of retry for AC 0" 	361
scalar scenarioPRJP1.node[99].wlan[0].mac 	"number of retry for AC 1" 	0
scalar scenarioPRJP1.node[99].wlan[0].mac 	"number of retry for AC 2" 	0
scalar scenarioPRJP1.node[99].wlan[0].mac 	"number of retry for AC 3" 	0
scalar scenarioPRJP1.node[99].wlan[0].mac 	"sent and received bits" 	1493152
scalar scenarioPRJP1.node[99].wlan[0].mac 	"sent packet within AC 0" 	32
scalar scenarioPRJP1.node[99].wlan[0].mac 	"sent packet within AC 1" 	0
scalar scenarioPRJP1.node[99].wlan[0].mac 	"sent packet within AC 2" 	0
scalar scenarioPRJP1.node[99].wlan[0].mac 	"sent packet within AC 3" 	0
scalar scenarioPRJP1.node[99].wlan[0].mac 	"sent in TXOP " 	0
scalar scenarioPRJP1.node[99].wlan[0].mac 	"sentWithoutRetry AC 0" 	31
scalar scenarioPRJP1.node[99].wlan[0].mac 	"sentWithoutRetry AC 1" 	0
scalar scenarioPRJP1.node[99].wlan[0].mac 	"sentWithoutRetry AC 2" 	0
scalar scenarioPRJP1.node[99].wlan[0].mac 	"sentWithoutRetry AC 3" 	0
scalar scenarioPRJP1.node[99].wlan[0].mac 	"numGivenUp AC 0" 	60
scalar scenarioPRJP1.node[99].wlan[0].mac 	"numGivenUp AC 1" 	0
scalar scenarioPRJP1.node[99].wlan[0].mac 	"numGivenUp AC 2" 	0
scalar scenarioPRJP1.node[99].wlan[0].mac 	"numGivenUp AC 3" 	0
scalar scenarioPRJP1.node[99].wlan[0].mac 	"numDropped AC 0" 	0
scalar scenarioPRJP1.node[99].wlan[0].mac 	"numDropped AC 1" 	0
scalar scenarioPRJP1.node[99].wlan[0].mac 	"numDropped AC 2" 	0
scalar scenarioPRJP1.node[99].wlan[0].mac 	"numDropped AC 3" 	0
scalar scenarioPRJP1.node[99].wlan[0].mac 	rcvdPkFromLL:count 	12804
attr interpolationmode  none
attr source  packetReceivedFromLower
attr title  "packets received from lower layer, count"
scalar scenarioPRJP1.node[99].wlan[0].mac 	rcvdPkFromLL:sum(packetBytes) 	1716924
attr interpolationmode  none
attr source  packetReceivedFromLower
attr title  "packets received from lower layer, sum(packetBytes)"
scalar scenarioPRJP1.node[99].wlan[0].mac 	sentDownPk:count 	2649
attr interpolationmode  none
attr source  packetSentToLower
attr title  "packets sent to lower layer, count"
scalar scenarioPRJP1.node[99].wlan[0].mac 	sentDownPk:sum(packetBytes) 	362274
attr interpolationmode  none
attr source  packetSentToLower
attr title  "packets sent to lower layer, sum(packetBytes)"
scalar scenarioPRJP1.node[99].wlan[0].mac 	rcvdPkFromHL:count 	2049
attr interpolationmode  none
attr source  packetReceivedFromUpper
attr title  "packets received from higher layer, count"
scalar scenarioPRJP1.node[99].wlan[0].mac 	rcvdPkFromHL:sum(packetBytes) 	211244
attr interpolationmode  none
attr source  packetReceivedFromUpper
attr title  "packets received from higher layer, sum(packetBytes)"
scalar scenarioPRJP1.node[99].wlan[0].mac 	passedUpPk:count 	8643
attr interpolationmode  none
attr source  packetSentToUpper
attr title  "packets passed to higher layer, count"
scalar scenarioPRJP1.node[99].wlan[0].mac 	passedUpPk:sum(packetBytes) 	779876
attr interpolationmode  none
attr source  packetSentToUpper
attr title  "packets passed to higher layer, sum(packetBytes)"
statistic scenarioPRJP1.node[99].wlan[0].radio 	radioChannel:histogram
field count 1
field mean 3
field stddev nan
field sum 3
field sqrsum 9
field min 3
field max 3
attr interpolationmode  sample-hold
attr source  radioChannelChanged
attr title  "Radio channel, histogram"
bin	-INF	0
bin	2	0
bin	3	1
bin	4	0
scalar scenarioPRJP1.node[99].wlan[0].radio 	transmissionState:count 	10596
attr interpolationmode  sample-hold
attr source  transmissionStateChanged
attr title  "Radio transmission state, count"
scalar scenarioPRJP1.node[99].wlan[0].radio 	receptionState:count 	31045
attr interpolationmode  sample-hold
attr source  receptionStateChanged
attr title  "Radio reception state, count"
scalar scenarioPRJP1.node[99].wlan[0].radio 	radioMode:count 	5300
attr interpolationmode  sample-hold
attr source  radioModeChanged
attr title  "Radio mode, count"
statistic scenarioPRJP1.node[99].wlan[0].radio 	symbolErrorRate:histogram
field count 0
field mean nan
field stddev nan
field sum 0
field sqrsum 0
field min nan
field max nan
attr source  symbolErrorRate
attr title  "Symbol error rate, histogram"
bin	-INF	0
bin	-0.5	0
bin	-0.46666666666667	0
bin	-0.43333333333333	0
bin	-0.4	0
bin	-0.36666666666667	0
bin	-0.33333333333333	0
bin	-0.3	0
bin	-0.26666666666667	0
bin	-0.23333333333333	0
bin	-0.2	0
bin	-0.16666666666667	0
bin	-0.13333333333333	0
bin	-0.1	0
bin	-0.066666666666667	0
bin	-0.033333333333333	0
bin	0	0
bin	0.033333333333333	0
bin	0.066666666666667	0
bin	0.1	0
bin	0.13333333333333	0
bin	0.16666666666667	0
bin	0.2	0
bin	0.23333333333333	0
bin	0.26666666666667	0
bin	0.3	0
bin	0.33333333333333	0
bin	0.36666666666667	0
bin	0.4	0
bin	0.43333333333333	0
bin	0.46666666666667	0
bin	0.5	0
statistic scenarioPRJP1.node[99].wlan[0].radio 	bitErrorRate:histogram
field count 0
field mean nan
field stddev nan
field sum 0
field sqrsum 0
field min nan
field max nan
attr source  bitErrorRate
attr title  "Bit error rate, histogram"
bin	-INF	0
bin	-0.5	0
bin	-0.46666666666667	0
bin	-0.43333333333333	0
bin	-0.4	0
bin	-0.36666666666667	0
bin	-0.33333333333333	0
bin	-0.3	0
bin	-0.26666666666667	0
bin	-0.23333333333333	0
bin	-0.2	0
bin	-0.16666666666667	0
bin	-0.13333333333333	0
bin	-0.1	0
bin	-0.066666666666667	0
bin	-0.033333333333333	0
bin	0	0
bin	0.033333333333333	0
bin	0.066666666666667	0
bin	0.1	0
bin	0.13333333333333	0
bin	0.16666666666667	0
bin	0.2	0
bin	0.23333333333333	0
bin	0.26666666666667	0
bin	0.3	0
bin	0.33333333333333	0
bin	0.36666666666667	0
bin	0.4	0
bin	0.43333333333333	0
bin	0.46666666666667	0
bin	0.5	0
statistic scenarioPRJP1.node[99].wlan[0].radio 	packetErrorRate:histogram
field count 12804
field mean 0.071422957002581
field stddev 0.2486947508483
field sum 914.49954146104
field sqrsum 857.1700211395
field min 0
field max 1
attr source  packetErrorRate
attr title  "Packet error rate, histogram"
bin	-INF	0
bin	-0.5	0
bin	-0.43333333333333	0
bin	-0.36666666666667	0
bin	-0.3	0
bin	-0.23333333333333	0
bin	-0.16666666666667	0
bin	-0.1	0
bin	-0.033333333333333	11645
bin	0.033333333333333	105
bin	0.1	51
bin	0.16666666666667	32
bin	0.23333333333333	30
bin	0.3	17
bin	0.36666666666667	18
bin	0.43333333333333	19
bin	0.5	9
bin	0.56666666666667	12
bin	0.63333333333333	12
bin	0.7	14
bin	0.76666666666667	21
bin	0.83333333333333	19
bin	0.9	30
bin	0.96666666666667	770
bin	1.0333333333333	0
bin	1.1	0
bin	1.1666666666667	0
bin	1.2333333333333	0
bin	1.3	0
bin	1.3666666666667	0
bin	1.4333333333333	0
bin	1.5	0
statistic scenarioPRJP1.node[99].wlan[0].radio 	minSNIR:histogram
field count 12804
field mean 10989.455179874
field stddev 76016.261382755
field sum 140708984.12311
field sqrsum 75528092021434
field min 0.0062063546036081
field max 753239.71923443
attr source  minSNIR
attr title  "Min SNIR, histogram"
bin	-INF	0
bin	-4273.2127111332	0
bin	-3703.1551334153	0
bin	-3133.0975556973	0
bin	-2563.0399779793	0
bin	-1992.9824002614	0
bin	-1422.9248225434	0
bin	-852.86724482545	0
bin	-282.80966710749	9838
bin	287.24791061047	933
bin	857.30548832843	296
bin	1427.3630660464	121
bin	1997.4206437644	99
bin	2567.4782214823	57
bin	3137.5357992003	49
bin	3707.5933769182	41
bin	4277.6509546362	125
bin	4847.7085323542	50
bin	5417.7661100721	39
bin	5987.8236877901	48
bin	6557.881265508	43
bin	7127.938843226	37
bin	7697.996420944	27
bin	8268.0539986619	34
bin	8838.1115763799	19
bin	9408.1691540978	25
bin	9978.2267318158	25
bin	10548.284309534	33
bin	11118.341887252	41
bin	11688.39946497	30
bin	12258.457042688	33
bin	12828.514620406	761
scalar scenarioPRJP1.node[99].lo0.lo 	droppedPkBitError:count 	0
attr interpolationmode  none
attr source  dropPkBitError
attr title  "packets dropped/bit error, count"
scalar scenarioPRJP1.node[99].lo0.lo 	droppedPkBitError:sum(packetBytes) 	0
attr interpolationmode  none
attr source  dropPkBitError
attr title  "packets dropped/bit error, sum(packetBytes)"
scalar scenarioPRJP1.node[99].lo0.lo 	rcvdPkFromHL:count 	0
attr interpolationmode  none
attr source  packetReceivedFromUpper
attr title  "packets received from higher layer, count"
scalar scenarioPRJP1.node[99].lo0.lo 	rcvdPkFromHL:sum(packetBytes) 	0
attr interpolationmode  none
attr source  packetReceivedFromUpper
attr title  "packets received from higher layer, sum(packetBytes)"
scalar scenarioPRJP1.node[99].lo0.lo 	passedUpPk:count 	0
attr interpolationmode  none
attr source  packetSentToUpper
attr title  "packets passed to higher layer, count"
scalar scenarioPRJP1.node[99].lo0.lo 	passedUpPk:sum(packetBytes) 	0
attr interpolationmode  none
attr source  packetSentToUpper
attr title  "packets passed to higher layer, sum(packetBytes)"
scalar scenarioPRJP1.node[41].app 	"Total sent" 	365
scalar scenarioPRJP1.node[41].app 	"Total received" 	40
scalar scenarioPRJP1.node[41].app 	"Total deleted" 	4
scalar scenarioPRJP1.node[41].app 	dropPk:count 	4
attr interpolationmode  none
attr source  dropPk
attr title  "packets dropped, count"
scalar scenarioPRJP1.node[41].app 	dropPk:sum(packetBytes) 	2048
attr interpolationmode  none
attr source  dropPk
attr title  "packets dropped, sum(packetBytes)"
scalar scenarioPRJP1.node[41].app 	outOfOrderPk:count 	1
attr interpolationmode  none
attr source  outOfOrderPk
attr title  "packets received out of order, count"
scalar scenarioPRJP1.node[41].app 	outOfOrderPk:sum(packetBytes) 	512
attr interpolationmode  none
attr source  outOfOrderPk
attr title  "packets received out of order, sum(packetBytes)"
scalar scenarioPRJP1.node[41].app 	rcvdPk:count 	40
attr interpolationmode  none
attr source  rcvdPk
attr title  "packets received, count"
scalar scenarioPRJP1.node[41].app 	rcvdPk:sum(packetBytes) 	20480
attr interpolationmode  none
attr source  rcvdPk
attr title  "packets received, sum(packetBytes)"
statistic scenarioPRJP1.node[41].app 	endToEndDelay:histogram
field count 40
field mean 1.4654807947596
field stddev 3.6269313068846
field sum 58.619231790384
field sqrsum 598.9359558819
field min 0.000997030895
field max 18.434582801306
attr interpolationmode  none
attr source  messageAge(rcvdPk)
attr title  "delay, histogram"
attr unit  s
bin	-INF	0
bin	-9.2157958543105	0
bin	-7.9868901362831	0
bin	-6.7579844182557	0
bin	-5.5290787002283	0
bin	-4.3001729822009	0
bin	-3.0712672641735	0
bin	-1.8423615461461	0
bin	-0.6134558281187	25
bin	0.6154498899087	8
bin	1.8443556079361	2
bin	3.0732613259635	1
bin	4.3021670439909	1
bin	5.5310727620183	1
bin	6.7599784800457	0
bin	7.9888841980731	0
bin	9.2177899161005	0
bin	10.446695634128	0
bin	11.675601352155	0
bin	12.904507070183	1
bin	14.13341278821	0
bin	15.362318506238	0
bin	16.591224224265	0
bin	17.820129942292	1
bin	19.04903566032	0
bin	20.277941378347	0
bin	21.506847096374	0
bin	22.735752814402	0
bin	23.964658532429	0
bin	25.193564250457	0
bin	26.422469968484	0
bin	27.651375686511	0
scalar scenarioPRJP1.node[41].app 	sentPk:count 	365
attr interpolationmode  none
attr source  sentPk
attr title  "packets sent, count"
scalar scenarioPRJP1.node[41].app 	sentPk:sum(packetBytes) 	186880
attr interpolationmode  none
attr source  sentPk
attr title  "packets sent, sum(packetBytes)"
scalar scenarioPRJP1.node[41].udp 	droppedPkBadChecksum:count 	0
attr interpolationmode  none
attr title  "packets dropped (checksum error), count"
scalar scenarioPRJP1.node[41].udp 	droppedPkWrongPort:count 	0
attr interpolationmode  none
attr title  "packets dropped (wrong port), count"
scalar scenarioPRJP1.node[41].udp 	passedUpPk:count 	45
attr interpolationmode  none
attr title  "packets passed up, count"
scalar scenarioPRJP1.node[41].udp 	rcvdPk:count 	45
attr interpolationmode  none
attr source  rcvdPk
attr title  "packets received, count"
scalar scenarioPRJP1.node[41].udp 	rcvdPk:sum(packetBytes) 	23400
attr interpolationmode  none
attr source  rcvdPk
attr title  "packets received, sum(packetBytes)"
scalar scenarioPRJP1.node[41].udp 	sentPk:count 	365
attr interpolationmode  none
attr source  sentPk
attr title  "packets sent, count"
scalar scenarioPRJP1.node[41].udp 	sentPk:sum(packetBytes) 	189800
attr interpolationmode  none
attr source  sentPk
attr title  "packets sent, sum(packetBytes)"
scalar scenarioPRJP1.node[41].networkLayer.arp 	failedARPResolution:count 	0
attr title  "ARP failed resolutions, count"
scalar scenarioPRJP1.node[41].networkLayer.arp 	completedARPResolution:count 	79
attr title  "ARP completed resolutions, count"
scalar scenarioPRJP1.node[41].networkLayer.arp 	initiatedARPResolution:count 	8
attr title  "ARP initiated resolutions, count"
scalar scenarioPRJP1.node[41].networkLayer.arp 	sentReply:count 	13
attr title  "ARP replies sent, count"
scalar scenarioPRJP1.node[41].networkLayer.arp 	sentReq:count 	10
attr title  "ARP request sent, count"
scalar scenarioPRJP1.node[41].mobility 	startTime 	4.8
scalar scenarioPRJP1.node[41].mobility 	totalTime 	154.3
scalar scenarioPRJP1.node[41].mobility 	stopTime 	159.2
scalar scenarioPRJP1.node[41].mobility 	minSpeed 	2.4760539471002e-13
scalar scenarioPRJP1.node[41].mobility 	maxSpeed 	19.29869047967
scalar scenarioPRJP1.node[41].mobility 	totalDistance 	1483.2346613943
scalar scenarioPRJP1.node[41].mobility 	totalCO2Emission 	483.76552202046
scalar scenarioPRJP1.node[41].wlan[0].mgmt 	dataQueueLen:max 	3
attr interpolationmode  sample-hold
attr title  "data queue length, max"
scalar scenarioPRJP1.node[41].wlan[0].mgmt 	dataQueueLen:timeavg 	0
attr interpolationmode  sample-hold
attr title  "data queue length, timeavg"
scalar scenarioPRJP1.node[41].wlan[0].mgmt 	dropPkByQueue:count 	0
attr interpolationmode  none
attr source  dropPkByQueue
attr title  "packets dropped by queue, count"
scalar scenarioPRJP1.node[41].wlan[0].mgmt 	dropPkByQueue:sum(packetBytes) 	0
attr interpolationmode  none
attr source  dropPkByQueue
attr title  "packets dropped by queue, sum(packetBytes)"
scalar scenarioPRJP1.node[41].wlan[0].mac 	"number of received packets" 	529
scalar scenarioPRJP1.node[41].wlan[0].mac 	"number of collisions" 	1265
scalar scenarioPRJP1.node[41].wlan[0].mac 	"number of internal collisions" 	0
scalar scenarioPRJP1.node[41].wlan[0].mac 	"number of retry for AC 0" 	544
scalar scenarioPRJP1.node[41].wlan[0].mac 	"number of retry for AC 1" 	0
scalar scenarioPRJP1.node[41].wlan[0].mac 	"number of retry for AC 2" 	0
scalar scenarioPRJP1.node[41].wlan[0].mac 	"number of retry for AC 3" 	0
scalar scenarioPRJP1.node[41].wlan[0].mac 	"sent and received bits" 	1492032
scalar scenarioPRJP1.node[41].wlan[0].mac 	"sent packet within AC 0" 	48
scalar scenarioPRJP1.node[41].wlan[0].mac 	"sent packet within AC 1" 	0
scalar scenarioPRJP1.node[41].wlan[0].mac 	"sent packet within AC 2" 	0
scalar scenarioPRJP1.node[41].wlan[0].mac 	"sent packet within AC 3" 	0
scalar scenarioPRJP1.node[41].wlan[0].mac 	"sent in TXOP " 	0
scalar scenarioPRJP1.node[41].wlan[0].mac 	"sentWithoutRetry AC 0" 	45
scalar scenarioPRJP1.node[41].wlan[0].mac 	"sentWithoutRetry AC 1" 	0
scalar scenarioPRJP1.node[41].wlan[0].mac 	"sentWithoutRetry AC 2" 	0
scalar scenarioPRJP1.node[41].wlan[0].mac 	"sentWithoutRetry AC 3" 	0
scalar scenarioPRJP1.node[41].wlan[0].mac 	"numGivenUp AC 0" 	90
scalar scenarioPRJP1.node[41].wlan[0].mac 	"numGivenUp AC 1" 	0
scalar scenarioPRJP1.node[41].wlan[0].mac 	"numGivenUp AC 2" 	0
scalar scenarioPRJP1.node[41].wlan[0].mac 	"numGivenUp AC 3" 	0
scalar scenarioPRJP1.node[41].wlan[0].mac 	"numDropped AC 0" 	0
scalar scenarioPRJP1.node[41].wlan[0].mac 	"numDropped AC 1" 	0
scalar scenarioPRJP1.node[41].wlan[0].mac 	"numDropped AC 2" 	0
scalar scenarioPRJP1.node[41].wlan[0].mac 	"numDropped AC 3" 	0
scalar scenarioPRJP1.node[41].wlan[0].mac 	rcvdPkFromLL:count 	18299
attr interpolationmode  none
attr source  packetReceivedFromLower
attr title  "packets received from lower layer, count"
scalar scenarioPRJP1.node[41].wlan[0].mac 	rcvdPkFromLL:sum(packetBytes) 	2568948
attr interpolationmode  none
attr source  packetReceivedFromLower
attr title  "packets received from lower layer, sum(packetBytes)"
scalar scenarioPRJP1.node[41].wlan[0].mac 	sentDownPk:count 	3109
attr interpolationmode  none
attr source  packetSentToLower
attr title  "packets sent to lower layer, count"
scalar scenarioPRJP1.node[41].wlan[0].mac 	sentDownPk:sum(packetBytes) 	484526
attr interpolationmode  none
attr source  packetSentToLower
attr title  "packets sent to lower layer, sum(packetBytes)"
scalar scenarioPRJP1.node[41].wlan[0].mac 	rcvdPkFromHL:count 	2036
attr interpolationmode  none
attr source  packetReceivedFromUpper
attr title  "packets received from higher layer, count"
scalar scenarioPRJP1.node[41].wlan[0].mac 	rcvdPkFromHL:sum(packetBytes) 	227832
attr interpolationmode  none
attr source  packetReceivedFromUpper
attr title  "packets received from higher layer, sum(packetBytes)"
scalar scenarioPRJP1.node[41].wlan[0].mac 	passedUpPk:count 	11628
attr interpolationmode  none
attr source  packetSentToUpper
attr title  "packets passed to higher layer, count"
scalar scenarioPRJP1.node[41].wlan[0].mac 	passedUpPk:sum(packetBytes) 	1055868
attr interpolationmode  none
attr source  packetSentToUpper
attr title  "packets passed to higher layer, sum(packetBytes)"
statistic scenarioPRJP1.node[41].wlan[0].radio 	radioChannel:histogram
field count 1
field mean 3
field stddev nan
field sum 3
field sqrsum 9
field min 3
field max 3
attr interpolationmode  sample-hold
attr source  radioChannelChanged
attr title  "Radio channel, histogram"
bin	-INF	0
bin	2	0
bin	3	1
bin	4	0
scalar scenarioPRJP1.node[41].wlan[0].radio 	transmissionState:count 	12436
attr interpolationmode  sample-hold
attr source  transmissionStateChanged
attr title  "Radio transmission state, count"
scalar scenarioPRJP1.node[41].wlan[0].radio 	receptionState:count 	43193
attr interpolationmode  sample-hold
attr source  receptionStateChanged
attr title  "Radio reception state, count"
scalar scenarioPRJP1.node[41].wlan[0].radio 	radioMode:count 	6220
attr interpolationmode  sample-hold
attr source  radioModeChanged
attr title  "Radio mode, count"
statistic scenarioPRJP1.node[41].wlan[0].radio 	symbolErrorRate:histogram
field count 0
field mean nan
field stddev nan
field sum 0
field sqrsum 0
field min nan
field max nan
attr source  symbolErrorRate
attr title  "Symbol error rate, histogram"
bin	-INF	0
bin	-0.5	0
bin	-0.46666666666667	0
bin	-0.43333333333333	0
bin	-0.4	0
bin	-0.36666666666667	0
bin	-0.33333333333333	0
bin	-0.3	0
bin	-0.26666666666667	0
bin	-0.23333333333333	0
bin	-0.2	0
bin	-0.16666666666667	0
bin	-0.13333333333333	0
bin	-0.1	0
bin	-0.066666666666667	0
bin	-0.033333333333333	0
bin	0	0
bin	0.033333333333333	0
bin	0.066666666666667	0
bin	0.1	0
bin	0.13333333333333	0
bin	0.16666666666667	0
bin	0.2	0
bin	0.23333333333333	0
bin	0.26666666666667	0
bin	0.3	0
bin	0.33333333333333	0
bin	0.36666666666667	0
bin	0.4	0
bin	0.43333333333333	0
bin	0.46666666666667	0
bin	0.5	0
statistic scenarioPRJP1.node[41].wlan[0].radio 	bitErrorRate:histogram
field count 0
field mean nan
field stddev nan
field sum 0
field sqrsum 0
field min nan
field max nan
attr source  bitErrorRate
attr title  "Bit error rate, histogram"
bin	-INF	0
bin	-0.5	0
bin	-0.46666666666667	0
bin	-0.43333333333333	0
bin	-0.4	0
bin	-0.36666666666667	0
bin	-0.33333333333333	0
bin	-0.3	0
bin	-0.26666666666667	0
bin	-0.23333333333333	0
bin	-0.2	0
bin	-0.16666666666667	0
bin	-0.13333333333333	0
bin	-0.1	0
bin	-0.066666666666667	0
bin	-0.033333333333333	0
bin	0	0
bin	0.033333333333333	0
bin	0.066666666666667	0
bin	0.1	0
bin	0.13333333333333	0
bin	0.16666666666667	0
bin	0.2	0
bin	0.23333333333333	0
bin	0.26666666666667	0
bin	0.3	0
bin	0.33333333333333	0
bin	0.36666666666667	0
bin	0.4	0
bin	0.43333333333333	0
bin	0.46666666666667	0
bin	0.5	0
statistic scenarioPRJP1.node[41].wlan[0].radio 	packetErrorRate:histogram
field count 18299
field mean 0.05481834610713
field stddev 0.22112495826594
field sum 1003.1209154144
field sqrsum 949.69296021067
field min 0
field max 1
attr source  packetErrorRate
attr title  "Packet error rate, histogram"
bin	-INF	0
bin	-4.7049305760272e-06	0
bin	-4.0776064992235e-06	0
bin	-3.4502824224199e-06	0
bin	-2.8229583456163e-06	0
bin	-2.1956342688127e-06	0
bin	-1.5683101920091e-06	0
bin	-9.4098611520543e-07	0
bin	-3.1366203840181e-07	15747
bin	3.1366203840181e-07	104
bin	9.4098611520543e-07	47
bin	1.5683101920091e-06	43
bin	2.1956342688127e-06	26
bin	2.8229583456163e-06	16
bin	3.4502824224199e-06	22
bin	4.0776064992235e-06	15
bin	4.7049305760272e-06	8
bin	5.3322546528308e-06	19
bin	5.9595787296344e-06	14
bin	6.586902806438e-06	8
bin	7.2142268832417e-06	1
bin	7.8415509600453e-06	8
bin	8.4688750368489e-06	10
bin	9.0961991136525e-06	6
bin	9.7235231904561e-06	4
bin	1.035084726726e-05	5
bin	1.0978171344063e-05	10
bin	1.1605495420867e-05	3
bin	1.2232819497671e-05	6
bin	1.2860143574474e-05	6
bin	1.3487467651278e-05	11
bin	1.4114791728081e-05	2160
statistic scenarioPRJP1.node[41].wlan[0].radio 	minSNIR:histogram
field count 18299
field mean 5193.2862603705
field stddev 48053.974432578
field sum 95031945.27852
field sqrsum 42746985322227
field min 0.00017622339629637
field max 753239.71807803
attr source  minSNIR
attr title  "Min SNIR, histogram"
bin	-INF	0
bin	-11118.29800188	0
bin	-9635.3785944196	0
bin	-8152.4591869588	0
bin	-6669.5397794979	0
bin	-5186.6203720371	0
bin	-3703.7009645763	0
bin	-2220.7815571155	0
bin	-737.8621496547	15498
bin	745.05725780612	1178
bin	2227.9766652669	407
bin	3710.8960727277	234
bin	5193.8154801886	127
bin	6676.7348876494	80
bin	8159.6542951102	64
bin	9642.573702571	60
bin	11125.493110032	49
bin	12608.412517493	33
bin	14091.331924953	35
bin	15574.251332414	25
bin	17057.170739875	14
bin	18540.090147336	37
bin	20023.009554797	14
bin	21505.928962257	15
bin	22988.848369718	20
bin	24471.767777179	8
bin	25954.68718464	12
bin	27437.606592101	24
bin	28920.525999562	17
bin	30403.445407022	8
bin	31886.364814483	8
bin	33369.284221944	332
scalar scenarioPRJP1.node[41].lo0.lo 	droppedPkBitError:count 	0
attr interpolationmode  none
attr source  dropPkBitError
attr title  "packets dropped/bit error, count"
scalar scenarioPRJP1.node[41].lo0.lo 	droppedPkBitError:sum(packetBytes) 	0
attr interpolationmode  none
attr source  dropPkBitError
attr title  "packets dropped/bit error, sum(packetBytes)"
scalar scenarioPRJP1.node[41].lo0.lo 	rcvdPkFromHL:count 	0
attr interpolationmode  none
attr source  packetReceivedFromUpper
attr title  "packets received from higher layer, count"
scalar scenarioPRJP1.node[41].lo0.lo 	rcvdPkFromHL:sum(packetBytes) 	0
attr interpolationmode  none
attr source  packetReceivedFromUpper
attr title  "packets received from higher layer, sum(packetBytes)"
scalar scenarioPRJP1.node[41].lo0.lo 	passedUpPk:count 	0
attr interpolationmode  none
attr source  packetSentToUpper
attr title  "packets passed to higher layer, count"
scalar scenarioPRJP1.node[41].lo0.lo 	passedUpPk:sum(packetBytes) 	0
attr interpolationmode  none
attr source  packetSentToUpper
attr title  "packets passed to higher layer, sum(packetBytes)"
scalar scenarioPRJP1.node[57].app 	"Total sent" 	371
scalar scenarioPRJP1.node[57].app 	"Total received" 	35
scalar scenarioPRJP1.node[57].app 	"Total deleted" 	4
scalar scenarioPRJP1.node[57].app 	dropPk:count 	4
attr interpolationmode  none
attr source  dropPk
attr title  "packets dropped, count"
scalar scenarioPRJP1.node[57].app 	dropPk:sum(packetBytes) 	2048
attr interpolationmode  none
attr source  dropPk
attr title  "packets dropped, sum(packetBytes)"
scalar scenarioPRJP1.node[57].app 	outOfOrderPk:count 	0
attr interpolationmode  none
attr source  outOfOrderPk
attr title  "packets received out of order, count"
scalar scenarioPRJP1.node[57].app 	outOfOrderPk:sum(packetBytes) 	0
attr interpolationmode  none
attr source  outOfOrderPk
attr title  "packets received out of order, sum(packetBytes)"
scalar scenarioPRJP1.node[57].app 	rcvdPk:count 	35
attr interpolationmode  none
attr source  rcvdPk
attr title  "packets received, count"
scalar scenarioPRJP1.node[57].app 	rcvdPk:sum(packetBytes) 	17920
attr interpolationmode  none
attr source  rcvdPk
attr title  "packets received, sum(packetBytes)"
statistic scenarioPRJP1.node[57].app 	endToEndDelay:histogram
field count 35
field mean 1.4264105344513
field stddev 3.9167604829877
field sum 49.924368705795
field sqrsum 592.80707660498
field min 0.000997131592
field max 18.041822935135
attr interpolationmode  none
attr source  messageAge(rcvdPk)
attr title  "delay, histogram"
attr unit  s
bin	-INF	0
bin	-9.0194157701795	0
bin	-7.8166940499433	0
bin	-6.6139723297071	0
bin	-5.4112506094709	0
bin	-4.2085288892347	0
bin	-3.0058071689985	0
bin	-1.8030854487623	0
bin	-0.6003637285261	28
bin	0.6023579917101	1
bin	1.8050797119463	1
bin	3.0078014321825	1
bin	4.2105231524187	1
bin	5.4132448726549	0
bin	6.6159665928911	0
bin	7.8186883131273	1
bin	9.0214100333635	0
bin	10.2241317536	0
bin	11.426853473836	1
bin	12.629575194072	0
bin	13.832296914308	0
bin	15.035018634544	0
bin	16.237740354781	0
bin	17.440462075017	1
bin	18.643183795253	0
bin	19.845905515489	0
bin	21.048627235725	0
bin	22.251348955962	0
bin	23.454070676198	0
bin	24.656792396434	0
bin	25.85951411667	0
bin	27.062235836906	0
scalar scenarioPRJP1.node[57].app 	sentPk:count 	371
attr interpolationmode  none
attr source  sentPk
attr title  "packets sent, count"
scalar scenarioPRJP1.node[57].app 	sentPk:sum(packetBytes) 	189952
attr interpolationmode  none
attr source  sentPk
attr title  "packets sent, sum(packetBytes)"
scalar scenarioPRJP1.node[57].udp 	droppedPkBadChecksum:count 	0
attr interpolationmode  none
attr title  "packets dropped (checksum error), count"
scalar scenarioPRJP1.node[57].udp 	droppedPkWrongPort:count 	0
attr interpolationmode  none
attr title  "packets dropped (wrong port), count"
scalar scenarioPRJP1.node[57].udp 	passedUpPk:count 	39
attr interpolationmode  none
attr title  "packets passed up, count"
scalar scenarioPRJP1.node[57].udp 	rcvdPk:count 	39
attr interpolationmode  none
attr source  rcvdPk
attr title  "packets received, count"
scalar scenarioPRJP1.node[57].udp 	rcvdPk:sum(packetBytes) 	20280
attr interpolationmode  none
attr source  rcvdPk
attr title  "packets received, sum(packetBytes)"
scalar scenarioPRJP1.node[57].udp 	sentPk:count 	371
attr interpolationmode  none
attr source  sentPk
attr title  "packets sent, count"
scalar scenarioPRJP1.node[57].udp 	sentPk:sum(packetBytes) 	192920
attr interpolationmode  none
attr source  sentPk
attr title  "packets sent, sum(packetBytes)"
scalar scenarioPRJP1.node[57].networkLayer.arp 	failedARPResolution:count 	0
attr title  "ARP failed resolutions, count"
scalar scenarioPRJP1.node[57].networkLayer.arp 	completedARPResolution:count 	102
attr title  "ARP completed resolutions, count"
scalar scenarioPRJP1.node[57].networkLayer.arp 	initiatedARPResolution:count 	11
attr title  "ARP initiated resolutions, count"
scalar scenarioPRJP1.node[57].networkLayer.arp 	sentReply:count 	10
attr title  "ARP replies sent, count"
scalar scenarioPRJP1.node[57].networkLayer.arp 	sentReq:count 	15
attr title  "ARP request sent, count"
scalar scenarioPRJP1.node[57].mobility 	startTime 	4.9
scalar scenarioPRJP1.node[57].mobility 	totalTime 	156.8
scalar scenarioPRJP1.node[57].mobility 	stopTime 	161.8
scalar scenarioPRJP1.node[57].mobility 	minSpeed 	2.4757172696535e-13
scalar scenarioPRJP1.node[57].mobility 	maxSpeed 	16.949766483713
scalar scenarioPRJP1.node[57].mobility 	totalDistance 	1448.0209740072
scalar scenarioPRJP1.node[57].mobility 	totalCO2Emission 	404.7082614704
scalar scenarioPRJP1.node[57].wlan[0].mgmt 	dataQueueLen:max 	1
attr interpolationmode  sample-hold
attr title  "data queue length, max"
scalar scenarioPRJP1.node[57].wlan[0].mgmt 	dataQueueLen:timeavg 	0
attr interpolationmode  sample-hold
attr title  "data queue length, timeavg"
scalar scenarioPRJP1.node[57].wlan[0].mgmt 	dropPkByQueue:count 	0
attr interpolationmode  none
attr source  dropPkByQueue
attr title  "packets dropped by queue, count"
scalar scenarioPRJP1.node[57].wlan[0].mgmt 	dropPkByQueue:sum(packetBytes) 	0
attr interpolationmode  none
attr source  dropPkByQueue
attr title  "packets dropped by queue, sum(packetBytes)"
scalar scenarioPRJP1.node[57].wlan[0].mac 	"number of received packets" 	288
scalar scenarioPRJP1.node[57].wlan[0].mac 	"number of collisions" 	1452
scalar scenarioPRJP1.node[57].wlan[0].mac 	"number of internal collisions" 	0
scalar scenarioPRJP1.node[57].wlan[0].mac 	"number of retry for AC 0" 	312
scalar scenarioPRJP1.node[57].wlan[0].mac 	"number of retry for AC 1" 	0
scalar scenarioPRJP1.node[57].wlan[0].mac 	"number of retry for AC 2" 	0
scalar scenarioPRJP1.node[57].wlan[0].mac 	"number of retry for AC 3" 	0
scalar scenarioPRJP1.node[57].wlan[0].mac 	"sent and received bits" 	1721920
scalar scenarioPRJP1.node[57].wlan[0].mac 	"sent packet within AC 0" 	48
scalar scenarioPRJP1.node[57].wlan[0].mac 	"sent packet within AC 1" 	0
scalar scenarioPRJP1.node[57].wlan[0].mac 	"sent packet within AC 2" 	0
scalar scenarioPRJP1.node[57].wlan[0].mac 	"sent packet within AC 3" 	0
scalar scenarioPRJP1.node[57].wlan[0].mac 	"sent in TXOP " 	0
scalar scenarioPRJP1.node[57].wlan[0].mac 	"sentWithoutRetry AC 0" 	44
scalar scenarioPRJP1.node[57].wlan[0].mac 	"sentWithoutRetry AC 1" 	0
scalar scenarioPRJP1.node[57].wlan[0].mac 	"sentWithoutRetry AC 2" 	0
scalar scenarioPRJP1.node[57].wlan[0].mac 	"sentWithoutRetry AC 3" 	0
scalar scenarioPRJP1.node[57].wlan[0].mac 	"numGivenUp AC 0" 	50
scalar scenarioPRJP1.node[57].wlan[0].mac 	"numGivenUp AC 1" 	0
scalar scenarioPRJP1.node[57].wlan[0].mac 	"numGivenUp AC 2" 	0
scalar scenarioPRJP1.node[57].wlan[0].mac 	"numGivenUp AC 3" 	0
scalar scenarioPRJP1.node[57].wlan[0].mac 	"numDropped AC 0" 	0
scalar scenarioPRJP1.node[57].wlan[0].mac 	"numDropped AC 1" 	0
scalar scenarioPRJP1.node[57].wlan[0].mac 	"numDropped AC 2" 	0
scalar scenarioPRJP1.node[57].wlan[0].mac 	"numDropped AC 3" 	0
scalar scenarioPRJP1.node[57].wlan[0].mac 	rcvdPkFromLL:count 	17501
attr interpolationmode  none
attr source  packetReceivedFromLower
attr title  "packets received from lower layer, count"
scalar scenarioPRJP1.node[57].wlan[0].mac 	rcvdPkFromLL:sum(packetBytes) 	2405358
attr interpolationmode  none
attr source  packetReceivedFromLower
attr title  "packets received from lower layer, sum(packetBytes)"
scalar scenarioPRJP1.node[57].wlan[0].mac 	sentDownPk:count 	2916
attr interpolationmode  none
attr source  packetSentToLower
attr title  "packets sent to lower layer, count"
scalar scenarioPRJP1.node[57].wlan[0].mac 	sentDownPk:sum(packetBytes) 	342380
attr interpolationmode  none
attr source  packetSentToLower
attr title  "packets sent to lower layer, sum(packetBytes)"
scalar scenarioPRJP1.node[57].wlan[0].mac 	rcvdPkFromHL:count 	2316
attr interpolationmode  none
attr source  packetReceivedFromUpper
attr title  "packets received from higher layer, count"
scalar scenarioPRJP1.node[57].wlan[0].mac 	rcvdPkFromHL:sum(packetBytes) 	232132
attr interpolationmode  none
attr source  packetReceivedFromUpper
attr title  "packets received from higher layer, sum(packetBytes)"
scalar scenarioPRJP1.node[57].wlan[0].mac 	passedUpPk:count 	11248
attr interpolationmode  none
attr source  packetSentToUpper
attr title  "packets passed to higher layer, count"
scalar scenarioPRJP1.node[57].wlan[0].mac 	passedUpPk:sum(packetBytes) 	1020348
attr interpolationmode  none
attr source  packetSentToUpper
attr title  "packets passed to higher layer, sum(packetBytes)"
statistic scenarioPRJP1.node[57].wlan[0].radio 	radioChannel:histogram
field count 1
field mean 3
field stddev nan
field sum 3
field sqrsum 9
field min 3
field max 3
attr interpolationmode  sample-hold
attr source  radioChannelChanged
attr title  "Radio channel, histogram"
bin	-INF	0
bin	2	0
bin	3	1
bin	4	0
scalar scenarioPRJP1.node[57].wlan[0].radio 	transmissionState:count 	11664
attr interpolationmode  sample-hold
attr source  transmissionStateChanged
attr title  "Radio transmission state, count"
scalar scenarioPRJP1.node[57].wlan[0].radio 	receptionState:count 	41087
attr interpolationmode  sample-hold
attr source  receptionStateChanged
attr title  "Radio reception state, count"
scalar scenarioPRJP1.node[57].wlan[0].radio 	radioMode:count 	5834
attr interpolationmode  sample-hold
attr source  radioModeChanged
attr title  "Radio mode, count"
statistic scenarioPRJP1.node[57].wlan[0].radio 	symbolErrorRate:histogram
field count 0
field mean nan
field stddev nan
field sum 0
field sqrsum 0
field min nan
field max nan
attr source  symbolErrorRate
attr title  "Symbol error rate, histogram"
bin	-INF	0
bin	-0.5	0
bin	-0.46666666666667	0
bin	-0.43333333333333	0
bin	-0.4	0
bin	-0.36666666666667	0
bin	-0.33333333333333	0
bin	-0.3	0
bin	-0.26666666666667	0
bin	-0.23333333333333	0
bin	-0.2	0
bin	-0.16666666666667	0
bin	-0.13333333333333	0
bin	-0.1	0
bin	-0.066666666666667	0
bin	-0.033333333333333	0
bin	0	0
bin	0.033333333333333	0
bin	0.066666666666667	0
bin	0.1	0
bin	0.13333333333333	0
bin	0.16666666666667	0
bin	0.2	0
bin	0.23333333333333	0
bin	0.26666666666667	0
bin	0.3	0
bin	0.33333333333333	0
bin	0.36666666666667	0
bin	0.4	0
bin	0.43333333333333	0
bin	0.46666666666667	0
bin	0.5	0
statistic scenarioPRJP1.node[57].wlan[0].radio 	bitErrorRate:histogram
field count 0
field mean nan
field stddev nan
field sum 0
field sqrsum 0
field min nan
field max nan
attr source  bitErrorRate
attr title  "Bit error rate, histogram"
bin	-INF	0
bin	-0.5	0
bin	-0.46666666666667	0
bin	-0.43333333333333	0
bin	-0.4	0
bin	-0.36666666666667	0
bin	-0.33333333333333	0
bin	-0.3	0
bin	-0.26666666666667	0
bin	-0.23333333333333	0
bin	-0.2	0
bin	-0.16666666666667	0
bin	-0.13333333333333	0
bin	-0.1	0
bin	-0.066666666666667	0
bin	-0.033333333333333	0
bin	0	0
bin	0.033333333333333	0
bin	0.066666666666667	0
bin	0.1	0
bin	0.13333333333333	0
bin	0.16666666666667	0
bin	0.2	0
bin	0.23333333333333	0
bin	0.26666666666667	0
bin	0.3	0
bin	0.33333333333333	0
bin	0.36666666666667	0
bin	0.4	0
bin	0.43333333333333	0
bin	0.46666666666667	0
bin	0.5	0
statistic scenarioPRJP1.node[57].wlan[0].radio 	packetErrorRate:histogram
field count 17501
field mean 0.066602267942882
field stddev 0.24234461994167
field sum 1165.6062912684
field sqrsum 1105.4230317838
field min 0
field max 1
attr source  packetErrorRate
attr title  "Packet error rate, histogram"
bin	-INF	0
bin	-0.5	0
bin	-0.43333333333333	0
bin	-0.36666666666667	0
bin	-0.3	0
bin	-0.23333333333333	0
bin	-0.16666666666667	0
bin	-0.1	0
bin	-0.033333333333333	16085
bin	0.033333333333333	112
bin	0.1	46
bin	0.16666666666667	28
bin	0.23333333333333	18
bin	0.3	27
bin	0.36666666666667	24
bin	0.43333333333333	19
bin	0.5	13
bin	0.56666666666667	12
bin	0.63333333333333	21
bin	0.7	15
bin	0.76666666666667	17
bin	0.83333333333333	20
bin	0.9	28
bin	0.96666666666667	1016
bin	1.0333333333333	0
bin	1.1	0
bin	1.1666666666667	0
bin	1.2333333333333	0
bin	1.3	0
bin	1.3666666666667	0
bin	1.4333333333333	0
bin	1.5	0
statistic scenarioPRJP1.node[57].wlan[0].radio 	minSNIR:histogram
field count 17501
field mean 5488.4043059924
field stddev 26963.721083473
field sum 96052563.759173
field sqrsum 13250414761216
field min 0.00072266355244983
field max 744887.17171122
attr source  minSNIR
attr title  "Min SNIR, histogram"
bin	-INF	0
bin	-509.22932591917	0
bin	-441.20065209069	0
bin	-373.17197826221	0
bin	-305.14330443374	0
bin	-237.11463060526	0
bin	-169.08595677678	0
bin	-101.05728294831	0
bin	-33.028609119828	6894
bin	35.00006470865	2204
bin	103.02873853713	1499
bin	171.0574123656	997
bin	239.08608619408	591
bin	307.11476002256	296
bin	375.14343385104	266
bin	443.17210767951	173
bin	511.20078150799	189
bin	579.22945533647	157
bin	647.25812916495	127
bin	715.28680299342	128
bin	783.3154768219	130
bin	851.34415065038	75
bin	919.37282447886	108
bin	987.40149830733	129
bin	1055.4301721358	81
bin	1123.4588459643	74
bin	1191.4875197928	63
bin	1259.5161936212	67
bin	1327.5448674497	55
bin	1395.5735412782	63
bin	1463.6022151067	48
bin	1531.6308889352	3087
scalar scenarioPRJP1.node[57].lo0.lo 	droppedPkBitError:count 	0
attr interpolationmode  none
attr source  dropPkBitError
attr title  "packets dropped/bit error, count"
scalar scenarioPRJP1.node[57].lo0.lo 	droppedPkBitError:sum(packetBytes) 	0
attr interpolationmode  none
attr source  dropPkBitError
attr title  "packets dropped/bit error, sum(packetBytes)"
scalar scenarioPRJP1.node[57].lo0.lo 	rcvdPkFromHL:count 	0
attr interpolationmode  none
attr source  packetReceivedFromUpper
attr title  "packets received from higher layer, count"
scalar scenarioPRJP1.node[57].lo0.lo 	rcvdPkFromHL:sum(packetBytes) 	0
attr interpolationmode  none
attr source  packetReceivedFromUpper
attr title  "packets received from higher layer, sum(packetBytes)"
scalar scenarioPRJP1.node[57].lo0.lo 	passedUpPk:count 	0
attr interpolationmode  none
attr source  packetSentToUpper
attr title  "packets passed to higher layer, count"
scalar scenarioPRJP1.node[57].lo0.lo 	passedUpPk:sum(packetBytes) 	0
attr interpolationmode  none
attr source  packetSentToUpper
attr title  "packets passed to higher layer, sum(packetBytes)"
scalar scenarioPRJP1.node[34].app 	"Total sent" 	616
scalar scenarioPRJP1.node[34].app 	"Total received" 	46
scalar scenarioPRJP1.node[34].app 	"Total deleted" 	3
scalar scenarioPRJP1.node[34].app 	dropPk:count 	3
attr interpolationmode  none
attr source  dropPk
attr title  "packets dropped, count"
scalar scenarioPRJP1.node[34].app 	dropPk:sum(packetBytes) 	1536
attr interpolationmode  none
attr source  dropPk
attr title  "packets dropped, sum(packetBytes)"
scalar scenarioPRJP1.node[34].app 	outOfOrderPk:count 	0
attr interpolationmode  none
attr source  outOfOrderPk
attr title  "packets received out of order, count"
scalar scenarioPRJP1.node[34].app 	outOfOrderPk:sum(packetBytes) 	0
attr interpolationmode  none
attr source  outOfOrderPk
attr title  "packets received out of order, sum(packetBytes)"
scalar scenarioPRJP1.node[34].app 	rcvdPk:count 	46
attr interpolationmode  none
attr source  rcvdPk
attr title  "packets received, count"
scalar scenarioPRJP1.node[34].app 	rcvdPk:sum(packetBytes) 	23552
attr interpolationmode  none
attr source  rcvdPk
attr title  "packets received, sum(packetBytes)"
statistic scenarioPRJP1.node[34].app 	endToEndDelay:histogram
field count 46
field mean 1.2003547233111
field stddev 4.0410632371332
field sum 55.21631727231
field sqrsum 801.1378111346
field min 0.000971011044
field max 19.076154779394
attr interpolationmode  none
attr source  messageAge(rcvdPk)
attr title  "delay, histogram"
attr unit  s
bin	-INF	0
bin	-9.536620873131	0
bin	-8.264941955241	0
bin	-6.993263037351	0
bin	-5.721584119461	0
bin	-4.449905201571	0
bin	-3.178226283681	0
bin	-1.906547365791	0
bin	-0.634868447901	40
bin	0.636810469989	1
bin	1.908489387879	0
bin	3.180168305769	0
bin	4.451847223659	2
bin	5.723526141549	0
bin	6.995205059439	1
bin	8.266883977329	0
bin	9.538562895219	0
bin	10.810241813109	0
bin	12.081920730999	0
bin	13.353599648889	0
bin	14.625278566779	0
bin	15.896957484669	0
bin	17.168636402559	1
bin	18.440315320449	1
bin	19.711994238339	0
bin	20.983673156229	0
bin	22.255352074119	0
bin	23.527030992009	0
bin	24.798709909899	0
bin	26.070388827789	0
bin	27.342067745679	0
bin	28.613746663569	0
scalar scenarioPRJP1.node[34].app 	sentPk:count 	616
attr interpolationmode  none
attr source  sentPk
attr title  "packets sent, count"
scalar scenarioPRJP1.node[34].app 	sentPk:sum(packetBytes) 	315392
attr interpolationmode  none
attr source  sentPk
attr title  "packets sent, sum(packetBytes)"
scalar scenarioPRJP1.node[34].udp 	droppedPkBadChecksum:count 	0
attr interpolationmode  none
attr title  "packets dropped (checksum error), count"
scalar scenarioPRJP1.node[34].udp 	droppedPkWrongPort:count 	0
attr interpolationmode  none
attr title  "packets dropped (wrong port), count"
scalar scenarioPRJP1.node[34].udp 	passedUpPk:count 	49
attr interpolationmode  none
attr title  "packets passed up, count"
scalar scenarioPRJP1.node[34].udp 	rcvdPk:count 	49
attr interpolationmode  none
attr source  rcvdPk
attr title  "packets received, count"
scalar scenarioPRJP1.node[34].udp 	rcvdPk:sum(packetBytes) 	25480
attr interpolationmode  none
attr source  rcvdPk
attr title  "packets received, sum(packetBytes)"
scalar scenarioPRJP1.node[34].udp 	sentPk:count 	616
attr interpolationmode  none
attr source  sentPk
attr title  "packets sent, count"
scalar scenarioPRJP1.node[34].udp 	sentPk:sum(packetBytes) 	320320
attr interpolationmode  none
attr source  sentPk
attr title  "packets sent, sum(packetBytes)"
scalar scenarioPRJP1.node[34].networkLayer.arp 	failedARPResolution:count 	1
attr title  "ARP failed resolutions, count"
scalar scenarioPRJP1.node[34].networkLayer.arp 	completedARPResolution:count 	112
attr title  "ARP completed resolutions, count"
scalar scenarioPRJP1.node[34].networkLayer.arp 	initiatedARPResolution:count 	11
attr title  "ARP initiated resolutions, count"
scalar scenarioPRJP1.node[34].networkLayer.arp 	sentReply:count 	18
attr title  "ARP replies sent, count"
scalar scenarioPRJP1.node[34].networkLayer.arp 	sentReq:count 	14
attr title  "ARP request sent, count"
scalar scenarioPRJP1.node[34].mobility 	startTime 	2.5
scalar scenarioPRJP1.node[34].mobility 	totalTime 	244.7
scalar scenarioPRJP1.node[34].mobility 	stopTime 	247.3
scalar scenarioPRJP1.node[34].mobility 	minSpeed 	2.4761728820482e-13
scalar scenarioPRJP1.node[34].mobility 	maxSpeed 	16.885867146736
scalar scenarioPRJP1.node[34].mobility 	totalDistance 	2233.963790605
scalar scenarioPRJP1.node[34].mobility 	totalCO2Emission 	638.33022012751
scalar scenarioPRJP1.node[34].wlan[0].mgmt 	dataQueueLen:max 	6
attr interpolationmode  sample-hold
attr title  "data queue length, max"
scalar scenarioPRJP1.node[34].wlan[0].mgmt 	dataQueueLen:timeavg 	0
attr interpolationmode  sample-hold
attr title  "data queue length, timeavg"
scalar scenarioPRJP1.node[34].wlan[0].mgmt 	dropPkByQueue:count 	0
attr interpolationmode  none
attr source  dropPkByQueue
attr title  "packets dropped by queue, count"
scalar scenarioPRJP1.node[34].wlan[0].mgmt 	dropPkByQueue:sum(packetBytes) 	0
attr interpolationmode  none
attr source  dropPkByQueue
attr title  "packets dropped by queue, sum(packetBytes)"
scalar scenarioPRJP1.node[34].wlan[0].mac 	"number of received packets" 	379
scalar scenarioPRJP1.node[34].wlan[0].mac 	"number of collisions" 	1724
scalar scenarioPRJP1.node[34].wlan[0].mac 	"number of internal collisions" 	0
scalar scenarioPRJP1.node[34].wlan[0].mac 	"number of retry for AC 0" 	523
scalar scenarioPRJP1.node[34].wlan[0].mac 	"number of retry for AC 1" 	0
scalar scenarioPRJP1.node[34].wlan[0].mac 	"number of retry for AC 2" 	0
scalar scenarioPRJP1.node[34].wlan[0].mac 	"number of retry for AC 3" 	0
scalar scenarioPRJP1.node[34].wlan[0].mac 	"sent and received bits" 	2113664
scalar scenarioPRJP1.node[34].wlan[0].mac 	"sent packet within AC 0" 	57
scalar scenarioPRJP1.node[34].wlan[0].mac 	"sent packet within AC 1" 	0
scalar scenarioPRJP1.node[34].wlan[0].mac 	"sent packet within AC 2" 	0
scalar scenarioPRJP1.node[34].wlan[0].mac 	"sent packet within AC 3" 	0
scalar scenarioPRJP1.node[34].wlan[0].mac 	"sent in TXOP " 	0
scalar scenarioPRJP1.node[34].wlan[0].mac 	"sentWithoutRetry AC 0" 	53
scalar scenarioPRJP1.node[34].wlan[0].mac 	"sentWithoutRetry AC 1" 	0
scalar scenarioPRJP1.node[34].wlan[0].mac 	"sentWithoutRetry AC 2" 	0
scalar scenarioPRJP1.node[34].wlan[0].mac 	"sentWithoutRetry AC 3" 	0
scalar scenarioPRJP1.node[34].wlan[0].mac 	"numGivenUp AC 0" 	86
scalar scenarioPRJP1.node[34].wlan[0].mac 	"numGivenUp AC 1" 	0
scalar scenarioPRJP1.node[34].wlan[0].mac 	"numGivenUp AC 2" 	0
scalar scenarioPRJP1.node[34].wlan[0].mac 	"numGivenUp AC 3" 	0
scalar scenarioPRJP1.node[34].wlan[0].mac 	"numDropped AC 0" 	0
scalar scenarioPRJP1.node[34].wlan[0].mac 	"numDropped AC 1" 	0
scalar scenarioPRJP1.node[34].wlan[0].mac 	"numDropped AC 2" 	0
scalar scenarioPRJP1.node[34].wlan[0].mac 	"numDropped AC 3" 	0
scalar scenarioPRJP1.node[34].wlan[0].mac 	rcvdPkFromLL:count 	23760
attr interpolationmode  none
attr source  packetReceivedFromLower
attr title  "packets received from lower layer, count"
scalar scenarioPRJP1.node[34].wlan[0].mac 	rcvdPkFromLL:sum(packetBytes) 	3415004
attr interpolationmode  none
attr source  packetReceivedFromLower
attr title  "packets received from lower layer, sum(packetBytes)"
scalar scenarioPRJP1.node[34].wlan[0].mac 	sentDownPk:count 	3739
attr interpolationmode  none
attr source  packetSentToLower
attr title  "packets sent to lower layer, count"
scalar scenarioPRJP1.node[34].wlan[0].mac 	sentDownPk:sum(packetBytes) 	518882
attr interpolationmode  none
attr source  packetSentToLower
attr title  "packets sent to lower layer, sum(packetBytes)"
scalar scenarioPRJP1.node[34].wlan[0].mac 	rcvdPkFromHL:count 	2837
attr interpolationmode  none
attr source  packetReceivedFromUpper
attr title  "packets received from higher layer, count"
scalar scenarioPRJP1.node[34].wlan[0].mac 	rcvdPkFromHL:sum(packetBytes) 	299256
attr interpolationmode  none
attr source  packetReceivedFromUpper
attr title  "packets received from higher layer, sum(packetBytes)"
scalar scenarioPRJP1.node[34].wlan[0].mac 	passedUpPk:count 	15458
attr interpolationmode  none
attr source  packetSentToUpper
attr title  "packets passed to higher layer, count"
scalar scenarioPRJP1.node[34].wlan[0].mac 	passedUpPk:sum(packetBytes) 	1399104
attr interpolationmode  none
attr source  packetSentToUpper
attr title  "packets passed to higher layer, sum(packetBytes)"
statistic scenarioPRJP1.node[34].wlan[0].radio 	radioChannel:histogram
field count 1
field mean 3
field stddev nan
field sum 3
field sqrsum 9
field min 3
field max 3
attr interpolationmode  sample-hold
attr source  radioChannelChanged
attr title  "Radio channel, histogram"
bin	-INF	0
bin	2	0
bin	3	1
bin	4	0
scalar scenarioPRJP1.node[34].wlan[0].radio 	transmissionState:count 	14956
attr interpolationmode  sample-hold
attr source  transmissionStateChanged
attr title  "Radio transmission state, count"
scalar scenarioPRJP1.node[34].wlan[0].radio 	receptionState:count 	55190
attr interpolationmode  sample-hold
attr source  receptionStateChanged
attr title  "Radio reception state, count"
scalar scenarioPRJP1.node[34].wlan[0].radio 	radioMode:count 	7480
attr interpolationmode  sample-hold
attr source  radioModeChanged
attr title  "Radio mode, count"
statistic scenarioPRJP1.node[34].wlan[0].radio 	symbolErrorRate:histogram
field count 0
field mean nan
field stddev nan
field sum 0
field sqrsum 0
field min nan
field max nan
attr source  symbolErrorRate
attr title  "Symbol error rate, histogram"
bin	-INF	0
bin	-0.5	0
bin	-0.46666666666667	0
bin	-0.43333333333333	0
bin	-0.4	0
bin	-0.36666666666667	0
bin	-0.33333333333333	0
bin	-0.3	0
bin	-0.26666666666667	0
bin	-0.23333333333333	0
bin	-0.2	0
bin	-0.16666666666667	0
bin	-0.13333333333333	0
bin	-0.1	0
bin	-0.066666666666667	0
bin	-0.033333333333333	0
bin	0	0
bin	0.033333333333333	0
bin	0.066666666666667	0
bin	0.1	0
bin	0.13333333333333	0
bin	0.16666666666667	0
bin	0.2	0
bin	0.23333333333333	0
bin	0.26666666666667	0
bin	0.3	0
bin	0.33333333333333	0
bin	0.36666666666667	0
bin	0.4	0
bin	0.43333333333333	0
bin	0.46666666666667	0
bin	0.5	0
statistic scenarioPRJP1.node[34].wlan[0].radio 	bitErrorRate:histogram
field count 0
field mean nan
field stddev nan
field sum 0
field sqrsum 0
field min nan
field max nan
attr source  bitErrorRate
attr title  "Bit error rate, histogram"
bin	-INF	0
bin	-0.5	0
bin	-0.46666666666667	0
bin	-0.43333333333333	0
bin	-0.4	0
bin	-0.36666666666667	0
bin	-0.33333333333333	0
bin	-0.3	0
bin	-0.26666666666667	0
bin	-0.23333333333333	0
bin	-0.2	0
bin	-0.16666666666667	0
bin	-0.13333333333333	0
bin	-0.1	0
bin	-0.066666666666667	0
bin	-0.033333333333333	0
bin	0	0
bin	0.033333333333333	0
bin	0.066666666666667	0
bin	0.1	0
bin	0.13333333333333	0
bin	0.16666666666667	0
bin	0.2	0
bin	0.23333333333333	0
bin	0.26666666666667	0
bin	0.3	0
bin	0.33333333333333	0
bin	0.36666666666667	0
bin	0.4	0
bin	0.43333333333333	0
bin	0.46666666666667	0
bin	0.5	0
statistic scenarioPRJP1.node[34].wlan[0].radio 	packetErrorRate:histogram
field count 23760
field mean 0.056325150300481
field stddev 0.22351875310924
field sum 1338.2855711394
field sqrsum 1262.3938151847
field min 0
field max 1
attr source  packetErrorRate
attr title  "Packet error rate, histogram"
bin	-INF	0
bin	-0.5	0
bin	-0.43333333333333	0
bin	-0.36666666666667	0
bin	-0.3	0
bin	-0.23333333333333	0
bin	-0.16666666666667	0
bin	-0.1	0
bin	-0.033333333333333	22084
bin	0.033333333333333	159
bin	0.1	61
bin	0.16666666666667	42
bin	0.23333333333333	42
bin	0.3	26
bin	0.36666666666667	16
bin	0.43333333333333	22
bin	0.5	19
bin	0.56666666666667	15
bin	0.63333333333333	15
bin	0.7	23
bin	0.76666666666667	20
bin	0.83333333333333	26
bin	0.9	36
bin	0.96666666666667	1154
bin	1.0333333333333	0
bin	1.1	0
bin	1.1666666666667	0
bin	1.2333333333333	0
bin	1.3	0
bin	1.3666666666667	0
bin	1.4333333333333	0
bin	1.5	0
statistic scenarioPRJP1.node[34].wlan[0].radio 	minSNIR:histogram
field count 23760
field mean 17473.032756271
field stddev 81742.356238886
field sum 415159258.289
field sqrsum 1.6600728171715e+14
field min 0.00031709188718062
field max 753239.71923443
attr source  minSNIR
attr title  "Min SNIR, histogram"
bin	-INF	0
bin	-1568.1048270445	0
bin	-1358.9445952002	0
bin	-1149.7843633559	0
bin	-940.62413151164	0
bin	-731.46389966736	0
bin	-522.30366782307	0
bin	-313.14343597879	0
bin	-103.9832041345	10953
bin	105.17702770978	3981
bin	314.33725955406	1259
bin	523.49749139835	591
bin	732.65772324263	411
bin	941.81795508692	343
bin	1150.9781869312	229
bin	1360.1384187755	218
bin	1569.2986506198	154
bin	1778.4588824641	133
bin	1987.6191143083	157
bin	2196.7793461526	180
bin	2405.9395779969	145
bin	2615.0998098412	145
bin	2824.2600416855	80
bin	3033.4202735298	71
bin	3242.580505374	82
bin	3451.7407372183	74
bin	3660.9009690626	55
bin	3870.0612009069	80
bin	4079.2214327512	78
bin	4288.3816645955	78
bin	4497.5418964397	62
bin	4706.702128284	4201
scalar scenarioPRJP1.node[34].lo0.lo 	droppedPkBitError:count 	0
attr interpolationmode  none
attr source  dropPkBitError
attr title  "packets dropped/bit error, count"
scalar scenarioPRJP1.node[34].lo0.lo 	droppedPkBitError:sum(packetBytes) 	0
attr interpolationmode  none
attr source  dropPkBitError
attr title  "packets dropped/bit error, sum(packetBytes)"
scalar scenarioPRJP1.node[34].lo0.lo 	rcvdPkFromHL:count 	0
attr interpolationmode  none
attr source  packetReceivedFromUpper
attr title  "packets received from higher layer, count"
scalar scenarioPRJP1.node[34].lo0.lo 	rcvdPkFromHL:sum(packetBytes) 	0
attr interpolationmode  none
attr source  packetReceivedFromUpper
attr title  "packets received from higher layer, sum(packetBytes)"
scalar scenarioPRJP1.node[34].lo0.lo 	passedUpPk:count 	0
attr interpolationmode  none
attr source  packetSentToUpper
attr title  "packets passed to higher layer, count"
scalar scenarioPRJP1.node[34].lo0.lo 	passedUpPk:sum(packetBytes) 	0
attr interpolationmode  none
attr source  packetSentToUpper
attr title  "packets passed to higher layer, sum(packetBytes)"
scalar scenarioPRJP1.node[86].app 	"Total sent" 	722
scalar scenarioPRJP1.node[86].app 	"Total received" 	64
scalar scenarioPRJP1.node[86].app 	"Total deleted" 	4
scalar scenarioPRJP1.node[86].app 	dropPk:count 	4
attr interpolationmode  none
attr source  dropPk
attr title  "packets dropped, count"
scalar scenarioPRJP1.node[86].app 	dropPk:sum(packetBytes) 	2048
attr interpolationmode  none
attr source  dropPk
attr title  "packets dropped, sum(packetBytes)"
scalar scenarioPRJP1.node[86].app 	outOfOrderPk:count 	0
attr interpolationmode  none
attr source  outOfOrderPk
attr title  "packets received out of order, count"
scalar scenarioPRJP1.node[86].app 	outOfOrderPk:sum(packetBytes) 	0
attr interpolationmode  none
attr source  outOfOrderPk
attr title  "packets received out of order, sum(packetBytes)"
scalar scenarioPRJP1.node[86].app 	rcvdPk:count 	64
attr interpolationmode  none
attr source  rcvdPk
attr title  "packets received, count"
scalar scenarioPRJP1.node[86].app 	rcvdPk:sum(packetBytes) 	32768
attr interpolationmode  none
attr source  rcvdPk
attr title  "packets received, sum(packetBytes)"
statistic scenarioPRJP1.node[86].app 	endToEndDelay:histogram
field count 64
field mean 0.26743830348567
field stddev 1.4933713519326
field sum 17.116051423083
field sqrsum 145.07744142566
field min 0.000945060555
field max 11.610755903864
attr interpolationmode  none
attr source  messageAge(rcvdPk)
attr title  "delay, histogram"
attr unit  s
bin	-INF	0
bin	-5.8039603610995	0
bin	-5.0299729715456	0
bin	-4.2559855819916	0
bin	-3.4819981924377	0
bin	-2.7080108028838	0
bin	-1.9340234133298	0
bin	-1.1600360237759	0
bin	-0.38604863422197	60
bin	0.38793875533197	1
bin	1.1619261448859	0
bin	1.9359135344398	2
bin	2.7099009239938	0
bin	3.4838883135477	0
bin	4.2578757031016	0
bin	5.0318630926556	0
bin	5.8058504822095	0
bin	6.5798378717634	0
bin	7.3538252613174	0
bin	8.1278126508713	0
bin	8.9018000404252	0
bin	9.6757874299792	0
bin	10.449774819533	0
bin	11.223762209087	1
bin	11.997749598641	0
bin	12.771736988195	0
bin	13.545724377749	0
bin	14.319711767303	0
bin	15.093699156857	0
bin	15.867686546411	0
bin	16.641673935965	0
bin	17.415661325518	0
scalar scenarioPRJP1.node[86].app 	sentPk:count 	722
attr interpolationmode  none
attr source  sentPk
attr title  "packets sent, count"
scalar scenarioPRJP1.node[86].app 	sentPk:sum(packetBytes) 	369664
attr interpolationmode  none
attr source  sentPk
attr title  "packets sent, sum(packetBytes)"
scalar scenarioPRJP1.node[86].udp 	droppedPkBadChecksum:count 	0
attr interpolationmode  none
attr title  "packets dropped (checksum error), count"
scalar scenarioPRJP1.node[86].udp 	droppedPkWrongPort:count 	0
attr interpolationmode  none
attr title  "packets dropped (wrong port), count"
scalar scenarioPRJP1.node[86].udp 	passedUpPk:count 	68
attr interpolationmode  none
attr title  "packets passed up, count"
scalar scenarioPRJP1.node[86].udp 	rcvdPk:count 	68
attr interpolationmode  none
attr source  rcvdPk
attr title  "packets received, count"
scalar scenarioPRJP1.node[86].udp 	rcvdPk:sum(packetBytes) 	35360
attr interpolationmode  none
attr source  rcvdPk
attr title  "packets received, sum(packetBytes)"
scalar scenarioPRJP1.node[86].udp 	sentPk:count 	722
attr interpolationmode  none
attr source  sentPk
attr title  "packets sent, count"
scalar scenarioPRJP1.node[86].udp 	sentPk:sum(packetBytes) 	375440
attr interpolationmode  none
attr source  sentPk
attr title  "packets sent, sum(packetBytes)"
scalar scenarioPRJP1.node[86].networkLayer.arp 	failedARPResolution:count 	3
attr title  "ARP failed resolutions, count"
scalar scenarioPRJP1.node[86].networkLayer.arp 	completedARPResolution:count 	197
attr title  "ARP completed resolutions, count"
scalar scenarioPRJP1.node[86].networkLayer.arp 	initiatedARPResolution:count 	25
attr title  "ARP initiated resolutions, count"
scalar scenarioPRJP1.node[86].networkLayer.arp 	sentReply:count 	15
attr title  "ARP replies sent, count"
scalar scenarioPRJP1.node[86].networkLayer.arp 	sentReq:count 	33
attr title  "ARP request sent, count"
scalar scenarioPRJP1.node[86].mobility 	startTime 	9.7
scalar scenarioPRJP1.node[86].mobility 	totalTime 	275.1
scalar scenarioPRJP1.node[86].mobility 	stopTime 	284.9
scalar scenarioPRJP1.node[86].mobility 	minSpeed 	2.4754325092906e-13
scalar scenarioPRJP1.node[86].mobility 	maxSpeed 	17.539053037835
scalar scenarioPRJP1.node[86].mobility 	totalDistance 	2202.5214209519
scalar scenarioPRJP1.node[86].mobility 	totalCO2Emission 	701.66534285581
scalar scenarioPRJP1.node[86].wlan[0].mgmt 	dataQueueLen:max 	0
attr interpolationmode  sample-hold
attr title  "data queue length, max"
scalar scenarioPRJP1.node[86].wlan[0].mgmt 	dataQueueLen:timeavg 	0
attr interpolationmode  sample-hold
attr title  "data queue length, timeavg"
scalar scenarioPRJP1.node[86].wlan[0].mgmt 	dropPkByQueue:count 	0
attr interpolationmode  none
attr source  dropPkByQueue
attr title  "packets dropped by queue, count"
scalar scenarioPRJP1.node[86].wlan[0].mgmt 	dropPkByQueue:sum(packetBytes) 	0
attr interpolationmode  none
attr source  dropPkByQueue
attr title  "packets dropped by queue, sum(packetBytes)"
scalar scenarioPRJP1.node[86].wlan[0].mac 	"number of received packets" 	331
scalar scenarioPRJP1.node[86].wlan[0].mac 	"number of collisions" 	3236
scalar scenarioPRJP1.node[86].wlan[0].mac 	"number of internal collisions" 	0
scalar scenarioPRJP1.node[86].wlan[0].mac 	"number of retry for AC 0" 	459
scalar scenarioPRJP1.node[86].wlan[0].mac 	"number of retry for AC 1" 	0
scalar scenarioPRJP1.node[86].wlan[0].mac 	"number of retry for AC 2" 	0
scalar scenarioPRJP1.node[86].wlan[0].mac 	"number of retry for AC 3" 	0
scalar scenarioPRJP1.node[86].wlan[0].mac 	"sent and received bits" 	2966656
scalar scenarioPRJP1.node[86].wlan[0].mac 	"sent packet within AC 0" 	91
scalar scenarioPRJP1.node[86].wlan[0].mac 	"sent packet within AC 1" 	0
scalar scenarioPRJP1.node[86].wlan[0].mac 	"sent packet within AC 2" 	0
scalar scenarioPRJP1.node[86].wlan[0].mac 	"sent packet within AC 3" 	0
scalar scenarioPRJP1.node[86].wlan[0].mac 	"sent in TXOP " 	0
scalar scenarioPRJP1.node[86].wlan[0].mac 	"sentWithoutRetry AC 0" 	81
scalar scenarioPRJP1.node[86].wlan[0].mac 	"sentWithoutRetry AC 1" 	0
scalar scenarioPRJP1.node[86].wlan[0].mac 	"sentWithoutRetry AC 2" 	0
scalar scenarioPRJP1.node[86].wlan[0].mac 	"sentWithoutRetry AC 3" 	0
scalar scenarioPRJP1.node[86].wlan[0].mac 	"numGivenUp AC 0" 	73
scalar scenarioPRJP1.node[86].wlan[0].mac 	"numGivenUp AC 1" 	0
scalar scenarioPRJP1.node[86].wlan[0].mac 	"numGivenUp AC 2" 	0
scalar scenarioPRJP1.node[86].wlan[0].mac 	"numGivenUp AC 3" 	0
scalar scenarioPRJP1.node[86].wlan[0].mac 	"numDropped AC 0" 	0
scalar scenarioPRJP1.node[86].wlan[0].mac 	"numDropped AC 1" 	0
scalar scenarioPRJP1.node[86].wlan[0].mac 	"numDropped AC 2" 	0
scalar scenarioPRJP1.node[86].wlan[0].mac 	"numDropped AC 3" 	0
scalar scenarioPRJP1.node[86].wlan[0].mac 	rcvdPkFromLL:count 	40267
attr interpolationmode  none
attr source  packetReceivedFromLower
attr title  "packets received from lower layer, count"
scalar scenarioPRJP1.node[86].wlan[0].mac 	rcvdPkFromLL:sum(packetBytes) 	6184068
attr interpolationmode  none
attr source  packetReceivedFromLower
attr title  "packets received from lower layer, sum(packetBytes)"
scalar scenarioPRJP1.node[86].wlan[0].mac 	sentDownPk:count 	4767
attr interpolationmode  none
attr source  packetSentToLower
attr title  "packets sent to lower layer, count"
scalar scenarioPRJP1.node[86].wlan[0].mac 	sentDownPk:sum(packetBytes) 	585682
attr interpolationmode  none
attr source  packetSentToLower
attr title  "packets sent to lower layer, sum(packetBytes)"
scalar scenarioPRJP1.node[86].wlan[0].mac 	rcvdPkFromHL:count 	3977
attr interpolationmode  none
attr source  packetReceivedFromUpper
attr title  "packets received from higher layer, count"
scalar scenarioPRJP1.node[86].wlan[0].mac 	rcvdPkFromHL:sum(packetBytes) 	399416
attr interpolationmode  none
attr source  packetReceivedFromUpper
attr title  "packets received from higher layer, sum(packetBytes)"
scalar scenarioPRJP1.node[86].wlan[0].mac 	passedUpPk:count 	24111
attr interpolationmode  none
attr source  packetSentToUpper
attr title  "packets passed to higher layer, count"
scalar scenarioPRJP1.node[86].wlan[0].mac 	passedUpPk:sum(packetBytes) 	2169440
attr interpolationmode  none
attr source  packetSentToUpper
attr title  "packets passed to higher layer, sum(packetBytes)"
statistic scenarioPRJP1.node[86].wlan[0].radio 	radioChannel:histogram
field count 1
field mean 3
field stddev nan
field sum 3
field sqrsum 9
field min 3
field max 3
attr interpolationmode  sample-hold
attr source  radioChannelChanged
attr title  "Radio channel, histogram"
bin	-INF	0
bin	2	0
bin	3	1
bin	4	0
scalar scenarioPRJP1.node[86].wlan[0].radio 	transmissionState:count 	19068
[...]
scalar scenarioPRJP1.node[76].wlan[0].mac 	passedUpPk:sum(packetBytes) 	6125708
attr interpolationmode  none
attr source  packetSentToUpper
attr title  "packets passed to higher layer, sum(packetBytes)"
statistic scenarioPRJP1.node[76].wlan[0].radio 	radioChannel:histogram
field count 1
field mean 3
field stddev nan
field sum 3
field sqrsum 9
field min 3
field max 3
attr interpolationmode  sample-hold
attr source  radioChannelChanged
attr title  "Radio channel, histogram"
bin	-INF	0
bin	2	0
bin	3	1
bin	4	0
scalar scenarioPRJP1.node[76].wlan[0].radio 	transmissionState:count 	96728
attr interpolationmode  sample-hold
attr source  transmissionStateChanged
attr title  "Radio transmission state, count"
scalar scenarioPRJP1.node[76].wlan[0].radio 	receptionState:count 	345865
attr interpolationmode  sample-hold
attr source  receptionStateChanged
attr title  "Radio reception state, count"
scalar scenarioPRJP1.node[76].wlan[0].radio 	radioMode:count 	48366
attr interpolationmode  sample-hold
attr source  radioModeChanged
attr title  "Radio mode, count"
statistic scenarioPRJP1.node[76].wlan[0].radio 	symbolErrorRate:histogram
field count 0
field mean nan
field stddev nan
field sum 0
field sqrsum 0
field min nan
field max nan
attr source  symbolErrorRate
attr title  "Symbol error rate, histogram"
bin	-INF	0
bin	-0.5	0
bin	-0.46666666666667	0
bin	-0.43333333333333	0
bin	-0.4	0
bin	-0.36666666666667	0
bin	-0.33333333333333	0
bin	-0.3	0
bin	-0.26666666666667	0
bin	-0.23333333333333	0
bin	-0.2	0
bin	-0.16666666666667	0
bin	-0.13333333333333	0
bin	-0.1	0
bin	-0.066666666666667	0
bin	-0.033333333333333	0
bin	0	0
bin	0.033333333333333	0
bin	0.066666666666667	0
bin	0.1	0
bin	0.13333333333333	0
bin	0.16666666666667	0
bin	0.2	0
bin	0.23333333333333	0
bin	0.26666666666667	0
bin	0.3	0
bin	0.33333333333333	0
bin	0.36666666666667	0
bin	0.4	0
bin	0.43333333333333	0
bin	0.46666666666667	0
bin	0.5	0
statistic scenarioPRJP1.node[76].wlan[0].radio 	bitErrorRate:histogram
field count 0
field mean nan
field stddev nan
field sum 0
field sqrsum 0
field min nan
field max nan
attr source  bitErrorRate
attr title  "Bit error rate, histogram"
bin	-INF	0
bin	-0.5	0
bin	-0.46666666666667	0
bin	-0.43333333333333	0
bin	-0.4	0
bin	-0.36666666666667	0
bin	-0.33333333333333	0
bin	-0.3	0
bin	-0.26666666666667	0
bin	-0.23333333333333	0
bin	-0.2	0
bin	-0.16666666666667	0
bin	-0.13333333333333	0
bin	-0.1	0
bin	-0.066666666666667	0
bin	-0.033333333333333	0
bin	0	0
bin	0.033333333333333	0
bin	0.066666666666667	0
bin	0.1	0
bin	0.13333333333333	0
bin	0.16666666666667	0
bin	0.2	0
bin	0.23333333333333	0
bin	0.26666666666667	0
bin	0.3	0
bin	0.33333333333333	0
bin	0.36666666666667	0
bin	0.4	0
bin	0.43333333333333	0
bin	0.46666666666667	0
bin	0.5	0
statistic scenarioPRJP1.node[76].wlan[0].radio 	packetErrorRate:histogram
field count 147859
field mean 0.087076268062211
field stddev 0.27398463153003
field sum 12875.009919411
field sqrsum 12220.449809493
field min 0
field max 1
attr source  packetErrorRate
attr title  "Packet error rate, histogram"
bin	-INF	0
bin	-0.5	0
bin	-0.43333333333333	0
bin	-0.36666666666667	0
bin	-0.3	0
bin	-0.23333333333333	0
bin	-0.16666666666667	0
bin	-0.1	0
bin	-0.033333333333333	132206
bin	0.033333333333333	1183
bin	0.1	581
bin	0.16666666666667	358
bin	0.23333333333333	284
bin	0.3	227
bin	0.36666666666667	188
bin	0.43333333333333	193
bin	0.5	167
bin	0.56666666666667	158
bin	0.63333333333333	166
bin	0.7	170
bin	0.76666666666667	193
bin	0.83333333333333	223
bin	0.9	317
bin	0.96666666666667	11245
bin	1.0333333333333	0
bin	1.1	0
bin	1.1666666666667	0
bin	1.2333333333333	0
bin	1.3	0
bin	1.3666666666667	0
bin	1.4333333333333	0
bin	1.5	0
statistic scenarioPRJP1.node[76].wlan[0].radio 	minSNIR:histogram
field count 147859
field mean 11070.200053959
field stddev 60773.236163313
field sum 1636828709.7783
field sqrsum 5.6421672302286e+14
field min 0.00045775738499527
field max 2146240.337335
attr source  minSNIR
attr title  "Min SNIR, histogram"
bin	-INF	0
bin	-5766.0707912105	0
bin	-4997.1384547724	0
bin	-4228.2061183343	0
bin	-3459.2737818962	0
bin	-2690.3414454581	0
bin	-1921.40910902	0
bin	-1152.476772582	0
bin	-383.54443614386	103403
bin	385.38790029423	12016
bin	1154.3202367323	4675
bin	1923.2525731704	2868
bin	2692.1849096085	2191
bin	3461.1172460466	1496
bin	4230.0495824847	1254
bin	4998.9819189228	915
bin	5767.9142553609	852
bin	6536.846591799	631
bin	7305.778928237	676
bin	8074.7112646751	511
bin	8843.6436011132	405
bin	9612.5759375513	451
bin	10381.508273989	439
bin	11150.440610427	561
bin	11919.372946866	621
bin	12688.305283304	2004
bin	13457.237619742	319
bin	14226.16995618	322
bin	14995.102292618	361
bin	15764.034629056	230
bin	16532.966965494	220
bin	17301.899301932	10438
scalar scenarioPRJP1.node[76].lo0.lo 	droppedPkBitError:count 	0
attr interpolationmode  none
attr source  dropPkBitError
attr title  "packets dropped/bit error, count"
scalar scenarioPRJP1.node[76].lo0.lo 	droppedPkBitError:sum(packetBytes) 	0
attr interpolationmode  none
attr source  dropPkBitError
attr title  "packets dropped/bit error, sum(packetBytes)"
scalar scenarioPRJP1.node[76].lo0.lo 	rcvdPkFromHL:count 	0
attr interpolationmode  none
attr source  packetReceivedFromUpper
attr title  "packets received from higher layer, count"
scalar scenarioPRJP1.node[76].lo0.lo 	rcvdPkFromHL:sum(packetBytes) 	0
attr interpolationmode  none
attr source  packetReceivedFromUpper
attr title  "packets received from higher layer, sum(packetBytes)"
scalar scenarioPRJP1.node[76].lo0.lo 	passedUpPk:count 	0
attr interpolationmode  none
attr source  packetSentToUpper
attr title  "packets passed to higher layer, count"
scalar scenarioPRJP1.node[76].lo0.lo 	passedUpPk:sum(packetBytes) 	0
attr interpolationmode  none
attr source  packetSentToUpper
attr title  "packets passed to higher layer, sum(packetBytes)"
scalar scenarioPRJP1.node[94].app 	"Total sent" 	2596
scalar scenarioPRJP1.node[94].app 	"Total received" 	198
scalar scenarioPRJP1.node[94].app 	"Total deleted" 	113
scalar scenarioPRJP1.node[94].app 	dropPk:count 	113
attr interpolationmode  none
attr source  dropPk
attr title  "packets dropped, count"
scalar scenarioPRJP1.node[94].app 	dropPk:sum(packetBytes) 	57856
attr interpolationmode  none
attr source  dropPk
attr title  "packets dropped, sum(packetBytes)"
scalar scenarioPRJP1.node[94].app 	outOfOrderPk:count 	42
attr interpolationmode  none
attr source  outOfOrderPk
attr title  "packets received out of order, count"
scalar scenarioPRJP1.node[94].app 	outOfOrderPk:sum(packetBytes) 	21504
attr interpolationmode  none
attr source  outOfOrderPk
attr title  "packets received out of order, sum(packetBytes)"
scalar scenarioPRJP1.node[94].app 	rcvdPk:count 	198
attr interpolationmode  none
attr source  rcvdPk
attr title  "packets received, count"
scalar scenarioPRJP1.node[94].app 	rcvdPk:sum(packetBytes) 	101376
attr interpolationmode  none
attr source  rcvdPk
attr title  "packets received, sum(packetBytes)"
statistic scenarioPRJP1.node[94].app 	endToEndDelay:histogram
field count 198
field mean 1.9546110812913
field stddev 4.5417592079861
field sum 387.01299409568
field sqrsum 4820.0924974185
field min 0.000945025673
field max 19.961923001946
attr interpolationmode  none
attr source  messageAge(rcvdPk)
attr title  "delay, histogram"
attr unit  s
bin	-INF	0
bin	-9.979523541669	0
bin	-8.648792584175	0
bin	-7.318061626681	0
bin	-5.987330669187	0
bin	-4.656599711693	0
bin	-3.325868754199	0
bin	-1.995137796705	0
bin	-0.664406839211	151
bin	0.666324118283	12
bin	1.997055075777	4
bin	3.327786033271	2
bin	4.658516990765	4
bin	5.989247948259	2
bin	7.319978905753	1
bin	8.650709863247	2
bin	9.981440820741	5
bin	11.312171778235	1
bin	12.642902735729	0
bin	13.973633693223	7
bin	15.304364650717	3
bin	16.635095608211	1
bin	17.965826565705	1
bin	19.296557523199	2
bin	20.627288480693	0
bin	21.958019438187	0
bin	23.288750395681	0
bin	24.619481353175	0
bin	25.950212310669	0
bin	27.280943268163	0
bin	28.611674225657	0
bin	29.942405183151	0
scalar scenarioPRJP1.node[94].app 	sentPk:count 	2596
attr interpolationmode  none
attr source  sentPk
attr title  "packets sent, count"
scalar scenarioPRJP1.node[94].app 	sentPk:sum(packetBytes) 	1329152
attr interpolationmode  none
attr source  sentPk
attr title  "packets sent, sum(packetBytes)"
scalar scenarioPRJP1.node[94].udp 	droppedPkBadChecksum:count 	0
attr interpolationmode  none
attr title  "packets dropped (checksum error), count"
scalar scenarioPRJP1.node[94].udp 	droppedPkWrongPort:count 	0
attr interpolationmode  none
attr title  "packets dropped (wrong port), count"
scalar scenarioPRJP1.node[94].udp 	passedUpPk:count 	353
attr interpolationmode  none
attr title  "packets passed up, count"
scalar scenarioPRJP1.node[94].udp 	rcvdPk:count 	353
attr interpolationmode  none
attr source  rcvdPk
attr title  "packets received, count"
scalar scenarioPRJP1.node[94].udp 	rcvdPk:sum(packetBytes) 	183560
attr interpolationmode  none
attr source  rcvdPk
attr title  "packets received, sum(packetBytes)"
scalar scenarioPRJP1.node[94].udp 	sentPk:count 	2596
attr interpolationmode  none
attr source  sentPk
attr title  "packets sent, count"
scalar scenarioPRJP1.node[94].udp 	sentPk:sum(packetBytes) 	1349920
attr interpolationmode  none
attr source  sentPk
attr title  "packets sent, sum(packetBytes)"
scalar scenarioPRJP1.node[94].networkLayer.arp 	failedARPResolution:count 	12
attr title  "ARP failed resolutions, count"
scalar scenarioPRJP1.node[94].networkLayer.arp 	completedARPResolution:count 	630
attr title  "ARP completed resolutions, count"
scalar scenarioPRJP1.node[94].networkLayer.arp 	initiatedARPResolution:count 	87
attr title  "ARP initiated resolutions, count"
scalar scenarioPRJP1.node[94].networkLayer.arp 	sentReply:count 	79
attr title  "ARP replies sent, count"
scalar scenarioPRJP1.node[94].networkLayer.arp 	sentReq:count 	135
attr title  "ARP request sent, count"
scalar scenarioPRJP1.node[94].mobility 	startTime 	9.7
scalar scenarioPRJP1.node[94].mobility 	totalTime 	940.2
scalar scenarioPRJP1.node[94].mobility 	stopTime 	950
scalar scenarioPRJP1.node[94].mobility 	minSpeed 	2.475757575167e-13
scalar scenarioPRJP1.node[94].mobility 	maxSpeed 	21.099230171932
scalar scenarioPRJP1.node[94].mobility 	totalDistance 	11153.119485364
scalar scenarioPRJP1.node[94].mobility 	totalCO2Emission 	2964.6919563652
scalar scenarioPRJP1.node[94].wlan[0].mgmt 	dataQueueLen:max 	17
attr interpolationmode  sample-hold
attr title  "data queue length, max"
scalar scenarioPRJP1.node[94].wlan[0].mgmt 	dataQueueLen:timeavg 	0
attr interpolationmode  sample-hold
attr title  "data queue length, timeavg"
scalar scenarioPRJP1.node[94].wlan[0].mgmt 	dropPkByQueue:count 	0
attr interpolationmode  none
attr source  dropPkByQueue
attr title  "packets dropped by queue, count"
scalar scenarioPRJP1.node[94].wlan[0].mgmt 	dropPkByQueue:sum(packetBytes) 	0
attr interpolationmode  none
attr source  dropPkByQueue
attr title  "packets dropped by queue, sum(packetBytes)"
scalar scenarioPRJP1.node[94].wlan[0].mac 	"number of received packets" 	5237
scalar scenarioPRJP1.node[94].wlan[0].mac 	"number of collisions" 	25577
scalar scenarioPRJP1.node[94].wlan[0].mac 	"number of internal collisions" 	0
scalar scenarioPRJP1.node[94].wlan[0].mac 	"number of retry for AC 0" 	7000
scalar scenarioPRJP1.node[94].wlan[0].mac 	"number of retry for AC 1" 	1
scalar scenarioPRJP1.node[94].wlan[0].mac 	"number of retry for AC 2" 	0
scalar scenarioPRJP1.node[94].wlan[0].mac 	"number of retry for AC 3" 	0
scalar scenarioPRJP1.node[94].wlan[0].mac 	"sent and received bits" 	16091072
scalar scenarioPRJP1.node[94].wlan[0].mac 	"sent packet within AC 0" 	1644
scalar scenarioPRJP1.node[94].wlan[0].mac 	"sent packet within AC 1" 	1
scalar scenarioPRJP1.node[94].wlan[0].mac 	"sent packet within AC 2" 	0
scalar scenarioPRJP1.node[94].wlan[0].mac 	"sent packet within AC 3" 	0
scalar scenarioPRJP1.node[94].wlan[0].mac 	"sent in TXOP " 	0
scalar scenarioPRJP1.node[94].wlan[0].mac 	"sentWithoutRetry AC 0" 	1543
scalar scenarioPRJP1.node[94].wlan[0].mac 	"sentWithoutRetry AC 1" 	0
scalar scenarioPRJP1.node[94].wlan[0].mac 	"sentWithoutRetry AC 2" 	0
scalar scenarioPRJP1.node[94].wlan[0].mac 	"sentWithoutRetry AC 3" 	0
scalar scenarioPRJP1.node[94].wlan[0].mac 	"numGivenUp AC 0" 	1141
scalar scenarioPRJP1.node[94].wlan[0].mac 	"numGivenUp AC 1" 	0
scalar scenarioPRJP1.node[94].wlan[0].mac 	"numGivenUp AC 2" 	0
scalar scenarioPRJP1.node[94].wlan[0].mac 	"numGivenUp AC 3" 	0
scalar scenarioPRJP1.node[94].wlan[0].mac 	"numDropped AC 0" 	0
scalar scenarioPRJP1.node[94].wlan[0].mac 	"numDropped AC 1" 	0
scalar scenarioPRJP1.node[94].wlan[0].mac 	"numDropped AC 2" 	0
scalar scenarioPRJP1.node[94].wlan[0].mac 	"numDropped AC 3" 	0
scalar scenarioPRJP1.node[94].wlan[0].mac 	rcvdPkFromLL:count 	195728
attr interpolationmode  none
attr source  packetReceivedFromLower
attr title  "packets received from lower layer, count"
scalar scenarioPRJP1.node[94].wlan[0].mac 	rcvdPkFromLL:sum(packetBytes) 	31610806
attr interpolationmode  none
attr source  packetReceivedFromLower
attr title  "packets received from lower layer, sum(packetBytes)"
scalar scenarioPRJP1.node[94].wlan[0].mac 	sentDownPk:count 	32539
attr interpolationmode  none
attr source  packetSentToLower
attr title  "packets sent to lower layer, count"
scalar scenarioPRJP1.node[94].wlan[0].mac 	sentDownPk:sum(packetBytes) 	5719166
attr interpolationmode  none
attr source  packetSentToLower
attr title  "packets sent to lower layer, sum(packetBytes)"
scalar scenarioPRJP1.node[94].wlan[0].mac 	rcvdPkFromHL:count 	20301
attr interpolationmode  none
attr source  packetReceivedFromUpper
attr title  "packets received from higher layer, count"
scalar scenarioPRJP1.node[94].wlan[0].mac 	rcvdPkFromHL:sum(packetBytes) 	2519820
attr interpolationmode  none
attr source  packetReceivedFromUpper
attr title  "packets received from higher layer, sum(packetBytes)"
scalar scenarioPRJP1.node[94].wlan[0].mac 	passedUpPk:count 	91345
attr interpolationmode  none
attr source  packetSentToUpper
attr title  "packets passed to higher layer, count"
scalar scenarioPRJP1.node[94].wlan[0].mac 	passedUpPk:sum(packetBytes) 	8563164
attr interpolationmode  none
attr source  packetSentToUpper
attr title  "packets passed to higher layer, sum(packetBytes)"
statistic scenarioPRJP1.node[94].wlan[0].radio 	radioChannel:histogram
field count 1
field mean 3
field stddev nan
field sum 3
field sqrsum 9
field min 3
field max 3
attr interpolationmode  sample-hold
attr source  radioChannelChanged
attr title  "Radio channel, histogram"
bin	-INF	0
bin	2	0
bin	3	1
bin	4	0
scalar scenarioPRJP1.node[94].wlan[0].radio 	transmissionState:count 	130156
attr interpolationmode  sample-hold
attr source  transmissionStateChanged
attr title  "Radio transmission state, count"
scalar scenarioPRJP1.node[94].wlan[0].radio 	receptionState:count 	460550
attr interpolationmode  sample-hold
attr source  receptionStateChanged
attr title  "Radio reception state, count"
scalar scenarioPRJP1.node[94].wlan[0].radio 	radioMode:count 	65080
attr interpolationmode  sample-hold
attr source  radioModeChanged
attr title  "Radio mode, count"
statistic scenarioPRJP1.node[94].wlan[0].radio 	symbolErrorRate:histogram
field count 0
field mean nan
field stddev nan
field sum 0
field sqrsum 0
field min nan
field max nan
attr source  symbolErrorRate
attr title  "Symbol error rate, histogram"
bin	-INF	0
bin	-0.5	0
bin	-0.46666666666667	0
bin	-0.43333333333333	0
bin	-0.4	0
bin	-0.36666666666667	0
bin	-0.33333333333333	0
bin	-0.3	0
bin	-0.26666666666667	0
bin	-0.23333333333333	0
bin	-0.2	0
bin	-0.16666666666667	0
bin	-0.13333333333333	0
bin	-0.1	0
bin	-0.066666666666667	0
bin	-0.033333333333333	0
bin	0	0
bin	0.033333333333333	0
bin	0.066666666666667	0
bin	0.1	0
bin	0.13333333333333	0
bin	0.16666666666667	0
bin	0.2	0
bin	0.23333333333333	0
bin	0.26666666666667	0
bin	0.3	0
bin	0.33333333333333	0
bin	0.36666666666667	0
bin	0.4	0
bin	0.43333333333333	0
bin	0.46666666666667	0
bin	0.5	0
statistic scenarioPRJP1.node[94].wlan[0].radio 	bitErrorRate:histogram
field count 0
field mean nan
field stddev nan
field sum 0
field sqrsum 0
field min nan
field max nan
attr source  bitErrorRate
attr title  "Bit error rate, histogram"
bin	-INF	0
bin	-0.5	0
bin	-0.46666666666667	0
bin	-0.43333333333333	0
bin	-0.4	0
bin	-0.36666666666667	0
bin	-0.33333333333333	0
bin	-0.3	0
bin	-0.26666666666667	0
bin	-0.23333333333333	0
bin	-0.2	0
bin	-0.16666666666667	0
bin	-0.13333333333333	0
bin	-0.1	0
bin	-0.066666666666667	0
bin	-0.033333333333333	0
bin	0	0
bin	0.033333333333333	0
bin	0.066666666666667	0
bin	0.1	0
bin	0.13333333333333	0
bin	0.16666666666667	0
bin	0.2	0
bin	0.23333333333333	0
bin	0.26666666666667	0
bin	0.3	0
bin	0.33333333333333	0
bin	0.36666666666667	0
bin	0.4	0
bin	0.43333333333333	0
bin	0.46666666666667	0
bin	0.5	0
statistic scenarioPRJP1.node[94].wlan[0].radio 	packetErrorRate:histogram
field count 195728
field mean 0.11164164131091
field stddev 0.30701938606851
field sum 21851.395170503
field sqrsum 20888.929465824
field min 0
field max 1
attr source  packetErrorRate
attr title  "Packet error rate, histogram"
bin	-INF	0
bin	-0.5	0
bin	-0.43333333333333	0
bin	-0.36666666666667	0
bin	-0.3	0
bin	-0.23333333333333	0
bin	-0.16666666666667	0
bin	-0.1	0
bin	-0.033333333333333	169811
bin	0.033333333333333	1774
bin	0.1	754
bin	0.16666666666667	530
bin	0.23333333333333	431
bin	0.3	351
bin	0.36666666666667	306
bin	0.43333333333333	241
bin	0.5	269
bin	0.56666666666667	240
bin	0.63333333333333	248
bin	0.7	266
bin	0.76666666666667	259
bin	0.83333333333333	321
bin	0.9	461
bin	0.96666666666667	19466
bin	1.0333333333333	0
bin	1.1	0
bin	1.1666666666667	0
bin	1.2333333333333	0
bin	1.3	0
bin	1.3666666666667	0
bin	1.4333333333333	0
bin	1.5	0
statistic scenarioPRJP1.node[94].wlan[0].radio 	minSNIR:histogram
field count 195728
field mean 4860.3585960235
field stddev 35825.114137067
field sum 951308267.2825
field sqrsum 2.558273258962e+14
field min 0.00017423323149129
field max 2905979.2403927
attr source  minSNIR
attr title  "Min SNIR, histogram"
bin	-INF	0
bin	-7172.3138681405	0
bin	-6215.8681084521	0
bin	-5259.4223487636	0
bin	-4302.9765890752	0
bin	-3346.5308293867	0
bin	-2390.0850696983	0
bin	-1433.6393100099	0
bin	-477.19355032141	152387
bin	479.25220936703	15100
bin	1435.6979690555	4976
bin	2392.1437287439	3245
bin	3348.5894884324	2188
bin	4305.0352481208	1550
bin	5261.4810078092	1289
bin	6217.9267674977	860
bin	7174.3725271861	1368
bin	8130.8182868746	553
bin	9087.264046563	467
bin	10043.709806251	508
bin	11000.15556594	891
bin	11956.601325628	998
bin	12913.047085317	561
bin	13869.492845005	364
bin	14825.938604694	260
bin	15782.384364382	228
bin	16738.830124071	228
bin	17695.275883759	194
bin	18651.721643447	323
bin	19608.167403136	153
bin	20564.613162824	192
bin	21521.058922513	6845
scalar scenarioPRJP1.node[94].lo0.lo 	droppedPkBitError:count 	0
attr interpolationmode  none
attr source  dropPkBitError
attr title  "packets dropped/bit error, count"
scalar scenarioPRJP1.node[94].lo0.lo 	droppedPkBitError:sum(packetBytes) 	0
attr interpolationmode  none
attr source  dropPkBitError
attr title  "packets dropped/bit error, sum(packetBytes)"
scalar scenarioPRJP1.node[94].lo0.lo 	rcvdPkFromHL:count 	0
attr interpolationmode  none
attr source  packetReceivedFromUpper
attr title  "packets received from higher layer, count"
scalar scenarioPRJP1.node[94].lo0.lo 	rcvdPkFromHL:sum(packetBytes) 	0
attr interpolationmode  none
attr source  packetReceivedFromUpper
attr title  "packets received from higher layer, sum(packetBytes)"
scalar scenarioPRJP1.node[94].lo0.lo 	passedUpPk:count 	0
attr interpolationmode  none
attr source  packetSentToUpper
attr title  "packets passed to higher layer, count"
scalar scenarioPRJP1.node[94].lo0.lo 	passedUpPk:sum(packetBytes) 	0
attr interpolationmode  none
attr source  packetSentToUpper
attr title  "packets passed to higher layer, sum(packetBytes)"
