version 2
run DYMOUM-TRG-10n-15-20150817-20:44:21-13237
attr configname DYMOUM-TRG-10n
attr datetime 20150817-20:44:21
attr experiment DYMOUM-TRG-10n
attr inifile omnetpp.ini
attr iterationvars ""
attr iterationvars2 $repetition=15
attr measurement ""
attr network Prj_Part1_propag.scenarioPRJP1
attr processid 13237
attr repetition 15
attr replication #15
attr resultdir results
attr runnumber 15
attr seedset 15

scalar scenarioPRJP1.radioMedium.propagation 	"Arrival computation count" 	390946
scalar scenarioPRJP1.radioMedium 	"transmission count" 	43444
scalar scenarioPRJP1.radioMedium 	"radio frame send count" 	390946
scalar scenarioPRJP1.radioMedium 	"reception computation count" 	389767
scalar scenarioPRJP1.radioMedium 	"interference computation count" 	1195970
scalar scenarioPRJP1.radioMedium 	"reception decision computation count" 	51847
scalar scenarioPRJP1.radioMedium 	"listening decision computation count" 	757393
scalar scenarioPRJP1.radioMedium 	"reception cache hit" 	71.301306571144
attr unit  %
scalar scenarioPRJP1.radioMedium 	"interference cache hit" 	50
attr unit  %
scalar scenarioPRJP1.radioMedium 	"noise cache hit" 	0
attr unit  %
scalar scenarioPRJP1.radioMedium 	"snir cache hit" 	0
attr unit  %
scalar scenarioPRJP1.radioMedium 	"reception decision cache hit" 	0
attr unit  %
scalar scenarioPRJP1.node[0].app 	"Total sent" 	2607
scalar scenarioPRJP1.node[0].app 	"Total received" 	121
scalar scenarioPRJP1.node[0].app 	"Total deleted" 	15
scalar scenarioPRJP1.node[0].app 	dropPk:count 	15
attr interpolationmode  none
attr source  dropPk
attr title  "packets dropped, count"
scalar scenarioPRJP1.node[0].app 	dropPk:sum(packetBytes) 	7680
attr interpolationmode  none
attr source  dropPk
attr title  "packets dropped, sum(packetBytes)"
scalar scenarioPRJP1.node[0].app 	outOfOrderPk:count 	0
attr interpolationmode  none
attr source  outOfOrderPk
attr title  "packets received out of order, count"
scalar scenarioPRJP1.node[0].app 	outOfOrderPk:sum(packetBytes) 	0
attr interpolationmode  none
attr source  outOfOrderPk
attr title  "packets received out of order, sum(packetBytes)"
scalar scenarioPRJP1.node[0].app 	rcvdPk:count 	121
attr interpolationmode  none
attr source  rcvdPk
attr title  "packets received, count"
scalar scenarioPRJP1.node[0].app 	rcvdPk:sum(packetBytes) 	61952
attr interpolationmode  none
attr source  rcvdPk
attr title  "packets received, sum(packetBytes)"
statistic scenarioPRJP1.node[0].app 	endToEndDelay:histogram
field count 121
field mean 3.251434561729
field stddev 5.3369579762622
field sum 393.42358196921
field sqrsum 4697.1654846605
field min 0.000945106781
field max 19.721594529124
attr interpolationmode  none
attr source  messageAge(rcvdPk)
attr title  "delay, histogram"
attr unit  s
bin	-INF	0
bin	-9.859379579753	0
bin	-8.5446696193585	0
bin	-7.2299596589639	0
bin	-5.9152496985694	0
bin	-4.6005397381749	0
bin	-3.2858297777803	0
bin	-1.9711198173858	0
bin	-0.65640985699127	76
bin	0.65830010340327	3
bin	1.9730100637978	5
bin	3.2877200241923	4
bin	4.6024299845869	5
bin	5.9171399449814	4
bin	7.2318499053759	4
bin	8.5465598657705	4
bin	9.861269826165	1
bin	11.17597978656	4
bin	12.490689746954	0
bin	13.805399707349	5
bin	15.120109667743	0
bin	16.434819628138	4
bin	17.749529588532	0
bin	19.064239548927	2
bin	20.378949509321	0
bin	21.693659469716	0
bin	23.00836943011	0
bin	24.323079390505	0
bin	25.637789350899	0
bin	26.952499311294	0
bin	28.267209271688	0
bin	29.581919232083	0
scalar scenarioPRJP1.node[0].app 	sentPk:count 	2607
attr interpolationmode  none
attr source  sentPk
attr title  "packets sent, count"
scalar scenarioPRJP1.node[0].app 	sentPk:sum(packetBytes) 	1334784
attr interpolationmode  none
attr source  sentPk
attr title  "packets sent, sum(packetBytes)"
scalar scenarioPRJP1.node[0].udp 	droppedPkBadChecksum:count 	0
attr interpolationmode  none
attr title  "packets dropped (checksum error), count"
scalar scenarioPRJP1.node[0].udp 	droppedPkWrongPort:count 	0
attr interpolationmode  none
attr title  "packets dropped (wrong port), count"
scalar scenarioPRJP1.node[0].udp 	passedUpPk:count 	136
attr interpolationmode  none
attr title  "packets passed up, count"
scalar scenarioPRJP1.node[0].udp 	rcvdPk:count 	136
attr interpolationmode  none
attr source  rcvdPk
attr title  "packets received, count"
scalar scenarioPRJP1.node[0].udp 	rcvdPk:sum(packetBytes) 	70720
attr interpolationmode  none
attr source  rcvdPk
attr title  "packets received, sum(packetBytes)"
scalar scenarioPRJP1.node[0].udp 	sentPk:count 	2607
attr interpolationmode  none
attr source  sentPk
attr title  "packets sent, count"
scalar scenarioPRJP1.node[0].udp 	sentPk:sum(packetBytes) 	1355640
attr interpolationmode  none
attr source  sentPk
attr title  "packets sent, sum(packetBytes)"
scalar scenarioPRJP1.node[0].networkLayer.arp 	failedARPResolution:count 	0
attr title  "ARP failed resolutions, count"
scalar scenarioPRJP1.node[0].networkLayer.arp 	completedARPResolution:count 	11
attr title  "ARP completed resolutions, count"
scalar scenarioPRJP1.node[0].networkLayer.arp 	initiatedARPResolution:count 	6
attr title  "ARP initiated resolutions, count"
scalar scenarioPRJP1.node[0].networkLayer.arp 	sentReply:count 	4
attr title  "ARP replies sent, count"
scalar scenarioPRJP1.node[0].networkLayer.arp 	sentReq:count 	6
attr title  "ARP request sent, count"
scalar scenarioPRJP1.node[0].manetrouting 	"simulated time" 	950
scalar scenarioPRJP1.node[0].manetrouting 	"Dymo totalSend " 	32570
scalar scenarioPRJP1.node[0].manetrouting 	"Dymo Rreq send" 	11502
scalar scenarioPRJP1.node[0].manetrouting 	"Dymo Rreq rec" 	3540
scalar scenarioPRJP1.node[0].manetrouting 	"Dymo Rrep send" 	36
scalar scenarioPRJP1.node[0].manetrouting 	"Dymo Rrep rec" 	36
scalar scenarioPRJP1.node[0].manetrouting 	"Dymo Rerr send" 	3
scalar scenarioPRJP1.node[0].manetrouting 	"Dymo Rerr rec" 	7
scalar scenarioPRJP1.node[0].mobility 	startTime 	0.1
scalar scenarioPRJP1.node[0].mobility 	totalTime 	949.9
scalar scenarioPRJP1.node[0].mobility 	stopTime 	950
scalar scenarioPRJP1.node[0].mobility 	minSpeed 	2.4754209414625e-13
scalar scenarioPRJP1.node[0].mobility 	maxSpeed 	19.425374493712
scalar scenarioPRJP1.node[0].mobility 	totalDistance 	8946.5081750181
scalar scenarioPRJP1.node[0].mobility 	totalCO2Emission 	2512.456472878
scalar scenarioPRJP1.node[0].wlan.mgmt 	dataQueueLen:max 	0
attr interpolationmode  sample-hold
attr title  "data queue length, max"
scalar scenarioPRJP1.node[0].wlan.mgmt 	dataQueueLen:timeavg 	0
attr interpolationmode  sample-hold
attr title  "data queue length, timeavg"
scalar scenarioPRJP1.node[0].wlan.mgmt 	dropPkByQueue:count 	0
attr interpolationmode  none
attr source  dropPkByQueue
attr title  "packets dropped by queue, count"
scalar scenarioPRJP1.node[0].wlan.mgmt 	dropPkByQueue:sum(packetBytes) 	0
attr interpolationmode  none
attr source  dropPkByQueue
attr title  "packets dropped by queue, sum(packetBytes)"
scalar scenarioPRJP1.node[0].wlan.mac 	"number of received packets" 	663
scalar scenarioPRJP1.node[0].wlan.mac 	"number of collisions" 	17
scalar scenarioPRJP1.node[0].wlan.mac 	"number of internal collisions" 	0
scalar scenarioPRJP1.node[0].wlan.mac 	"number of retry for AC 0" 	843
scalar scenarioPRJP1.node[0].wlan.mac 	"number of retry for AC 1" 	0
scalar scenarioPRJP1.node[0].wlan.mac 	"number of retry for AC 2" 	0
scalar scenarioPRJP1.node[0].wlan.mac 	"number of retry for AC 3" 	0
scalar scenarioPRJP1.node[0].wlan.mac 	"sent and received bits" 	1310200
scalar scenarioPRJP1.node[0].wlan.mac 	"sent packet within AC 0" 	68
scalar scenarioPRJP1.node[0].wlan.mac 	"sent packet within AC 1" 	0
scalar scenarioPRJP1.node[0].wlan.mac 	"sent packet within AC 2" 	0
scalar scenarioPRJP1.node[0].wlan.mac 	"sent packet within AC 3" 	0
scalar scenarioPRJP1.node[0].wlan.mac 	"sent in TXOP " 	0
scalar scenarioPRJP1.node[0].wlan.mac 	"sentWithoutRetry AC 0" 	65
scalar scenarioPRJP1.node[0].wlan.mac 	"sentWithoutRetry AC 1" 	0
scalar scenarioPRJP1.node[0].wlan.mac 	"sentWithoutRetry AC 2" 	0
scalar scenarioPRJP1.node[0].wlan.mac 	"sentWithoutRetry AC 3" 	0
scalar scenarioPRJP1.node[0].wlan.mac 	"numGivenUp AC 0" 	140
scalar scenarioPRJP1.node[0].wlan.mac 	"numGivenUp AC 1" 	0
scalar scenarioPRJP1.node[0].wlan.mac 	"numGivenUp AC 2" 	0
scalar scenarioPRJP1.node[0].wlan.mac 	"numGivenUp AC 3" 	0
scalar scenarioPRJP1.node[0].wlan.mac 	"numDropped AC 0" 	0
scalar scenarioPRJP1.node[0].wlan.mac 	"numDropped AC 1" 	0
scalar scenarioPRJP1.node[0].wlan.mac 	"numDropped AC 2" 	0
scalar scenarioPRJP1.node[0].wlan.mac 	"numDropped AC 3" 	0
scalar scenarioPRJP1.node[0].wlan.mac 	rcvdPkFromLL:count 	4014
attr interpolationmode  none
attr source  packetReceivedFromLower
attr title  "packets received from lower layer, count"
scalar scenarioPRJP1.node[0].wlan.mac 	rcvdPkFromLL:sum(packetBytes) 	983249
attr interpolationmode  none
attr source  packetReceivedFromLower
attr title  "packets received from lower layer, sum(packetBytes)"
scalar scenarioPRJP1.node[0].wlan.mac 	sentDownPk:count 	3193
attr interpolationmode  none
attr source  packetSentToLower
attr title  "packets sent to lower layer, count"
scalar scenarioPRJP1.node[0].wlan.mac 	sentDownPk:sum(packetBytes) 	711307
attr interpolationmode  none
attr source  packetSentToLower
attr title  "packets sent to lower layer, sum(packetBytes)"
scalar scenarioPRJP1.node[0].wlan.mac 	rcvdPkFromHL:count 	1687
attr interpolationmode  none
attr source  packetReceivedFromUpper
attr title  "packets received from higher layer, count"
scalar scenarioPRJP1.node[0].wlan.mac 	rcvdPkFromHL:sum(packetBytes) 	240421
attr interpolationmode  none
attr source  packetReceivedFromUpper
attr title  "packets received from higher layer, sum(packetBytes)"
scalar scenarioPRJP1.node[0].wlan.mac 	passedUpPk:count 	742
attr interpolationmode  none
attr source  packetSentToUpper
attr title  "packets passed to higher layer, count"
scalar scenarioPRJP1.node[0].wlan.mac 	passedUpPk:sum(packetBytes) 	148518
attr interpolationmode  none
attr source  packetSentToUpper
attr title  "packets passed to higher layer, sum(packetBytes)"
statistic scenarioPRJP1.node[0].wlan.radio 	radioChannel:histogram
field count 1
field mean 3
field stddev -nan
field sum 3
field sqrsum 9
field min 3
field max 3
attr interpolationmode  sample-hold
attr source  radioChannelChanged
attr title  "Radio channel, histogram"
bin	-INF	0
bin	2	0
bin	3	1
bin	4	0
scalar scenarioPRJP1.node[0].wlan.radio 	transmissionState:count 	12772
attr interpolationmode  sample-hold
attr source  transmissionStateChanged
attr title  "Radio transmission state, count"
scalar scenarioPRJP1.node[0].wlan.radio 	receptionState:count 	14423
attr interpolationmode  sample-hold
attr source  receptionStateChanged
attr title  "Radio reception state, count"
scalar scenarioPRJP1.node[0].wlan.radio 	radioMode:count 	6388
attr interpolationmode  sample-hold
attr source  radioModeChanged
attr title  "Radio mode, count"
statistic scenarioPRJP1.node[0].wlan.radio 	symbolErrorRate:histogram
field count 0
field mean -nan
field stddev -nan
field sum 0
field sqrsum 0
field min -nan
field max -nan
attr source  symbolErrorRate
attr title  "Symbol error rate, histogram"
bin	-INF	0
bin	-0.5	0
bin	-0.46666666666667	0
bin	-0.43333333333333	0
bin	-0.4	0
bin	-0.36666666666667	0
bin	-0.33333333333333	0
bin	-0.3	0
bin	-0.26666666666667	0
bin	-0.23333333333333	0
bin	-0.2	0
bin	-0.16666666666667	0
bin	-0.13333333333333	0
bin	-0.1	0
bin	-0.066666666666667	0
bin	-0.033333333333333	0
bin	0	0
bin	0.033333333333333	0
bin	0.066666666666667	0
bin	0.1	0
bin	0.13333333333333	0
bin	0.16666666666667	0
bin	0.2	0
bin	0.23333333333333	0
bin	0.26666666666667	0
bin	0.3	0
bin	0.33333333333333	0
bin	0.36666666666667	0
bin	0.4	0
bin	0.43333333333333	0
bin	0.46666666666667	0
bin	0.5	0
statistic scenarioPRJP1.node[0].wlan.radio 	bitErrorRate:histogram
field count 0
field mean -nan
field stddev -nan
field sum 0
field sqrsum 0
field min -nan
field max -nan
attr source  bitErrorRate
attr title  "Bit error rate, histogram"
bin	-INF	0
bin	-0.5	0
bin	-0.46666666666667	0
bin	-0.43333333333333	0
bin	-0.4	0
bin	-0.36666666666667	0
bin	-0.33333333333333	0
bin	-0.3	0
bin	-0.26666666666667	0
bin	-0.23333333333333	0
bin	-0.2	0
bin	-0.16666666666667	0
bin	-0.13333333333333	0
bin	-0.1	0
bin	-0.066666666666667	0
bin	-0.033333333333333	0
bin	0	0
bin	0.033333333333333	0
bin	0.066666666666667	0
bin	0.1	0
bin	0.13333333333333	0
bin	0.16666666666667	0
bin	0.2	0
bin	0.23333333333333	0
bin	0.26666666666667	0
bin	0.3	0
bin	0.33333333333333	0
bin	0.36666666666667	0
bin	0.4	0
bin	0.43333333333333	0
bin	0.46666666666667	0
bin	0.5	0
statistic scenarioPRJP1.node[0].wlan.radio 	packetErrorRate:histogram
field count 4014
field mean 0.0043773932051845
field stddev 0.063390353003092
field sum 17.570856325611
field sqrsum 16.202500341615
field min 0
field max 1
attr source  packetErrorRate
attr title  "Packet error rate, histogram"
bin	-INF	0
bin	-3.0452439625517e-08	0
bin	-2.6392114342115e-08	0
bin	-2.2331789058712e-08	0
bin	-1.827146377531e-08	0
bin	-1.4211138491908e-08	0
bin	-1.0150813208506e-08	0
bin	-6.0904879251034e-09	0
bin	-2.0301626417011e-09	3965
bin	2.0301626417011e-09	1
bin	6.0904879251034e-09	1
bin	1.0150813208506e-08	1
bin	1.4211138491908e-08	1
bin	1.827146377531e-08	0
bin	2.2331789058712e-08	0
bin	2.6392114342115e-08	0
bin	3.0452439625517e-08	0
bin	3.4512764908919e-08	1
bin	3.8573090192321e-08	1
bin	4.2633415475724e-08	0
bin	4.6693740759126e-08	0
bin	5.0754066042528e-08	0
bin	5.481439132593e-08	0
bin	5.8874716609332e-08	1
bin	6.2935041892735e-08	0
bin	6.6995367176137e-08	0
bin	7.1055692459539e-08	0
bin	7.5116017742941e-08	0
bin	7.9176343026344e-08	0
bin	8.3236668309746e-08	0
bin	8.7296993593148e-08	0
bin	9.135731887655e-08	42
statistic scenarioPRJP1.node[0].wlan.radio 	minSNIR:histogram
field count 4014
field mean 4527.1573626571
field stddev 10288.333905671
field sum 18172009.653706
field sqrsum 507042853105.6
field min 0.41043219110043
field max 160636.09467855
attr source  minSNIR
attr title  "Min SNIR, histogram"
bin	-INF	0
bin	-80310.108598903	0
bin	-69601.388453238	0
bin	-58892.668307574	0
bin	-48183.948161909	0
bin	-37475.228016245	0
bin	-26766.50787058	0
bin	-16057.787724915	0
bin	-5349.0675792508	3271
bin	5359.6525664138	257
bin	16068.372712078	208
bin	26777.092857743	183
bin	37485.813003408	91
bin	48194.533149072	0
bin	58903.253294737	1
bin	69611.973440402	1
bin	80320.693586066	1
bin	91029.413731731	0
bin	101738.1338774	0
bin	112446.85402306	0
bin	123155.57416872	0
bin	133864.29431439	0
bin	144573.01446005	0
bin	155281.73460572	1
bin	165990.45475138	0
bin	176699.17489705	0
bin	187407.89504271	0
bin	198116.61518838	0
bin	208825.33533404	0
bin	219534.05547971	0
bin	230242.77562537	0
bin	240951.49577104	0
scalar scenarioPRJP1.node[0].lo0.lo 	droppedPkBitError:count 	0
attr interpolationmode  none
attr source  dropPkBitError
attr title  "packets dropped/bit error, count"
scalar scenarioPRJP1.node[0].lo0.lo 	droppedPkBitError:sum(packetBytes) 	0
attr interpolationmode  none
attr source  dropPkBitError
attr title  "packets dropped/bit error, sum(packetBytes)"
scalar scenarioPRJP1.node[0].lo0.lo 	rcvdPkFromHL:count 	0
attr interpolationmode  none
attr source  packetReceivedFromUpper
attr title  "packets received from higher layer, count"
scalar scenarioPRJP1.node[0].lo0.lo 	rcvdPkFromHL:sum(packetBytes) 	0
attr interpolationmode  none
attr source  packetReceivedFromUpper
attr title  "packets received from higher layer, sum(packetBytes)"
scalar scenarioPRJP1.node[0].lo0.lo 	passedUpPk:count 	0
attr interpolationmode  none
attr source  packetSentToUpper
attr title  "packets passed to higher layer, count"
scalar scenarioPRJP1.node[0].lo0.lo 	passedUpPk:sum(packetBytes) 	0
attr interpolationmode  none
attr source  packetSentToUpper
attr title  "packets passed to higher layer, sum(packetBytes)"
scalar scenarioPRJP1.node[5].app 	"Total sent" 	2608
scalar scenarioPRJP1.node[5].app 	"Total received" 	195
scalar scenarioPRJP1.node[5].app 	"Total deleted" 	55
scalar scenarioPRJP1.node[5].app 	dropPk:count 	55
attr interpolationmode  none
attr source  dropPk
attr title  "packets dropped, count"
scalar scenarioPRJP1.node[5].app 	dropPk:sum(packetBytes) 	28160
attr interpolationmode  none
attr source  dropPk
attr title  "packets dropped, sum(packetBytes)"
scalar scenarioPRJP1.node[5].app 	outOfOrderPk:count 	0
attr interpolationmode  none
attr source  outOfOrderPk
attr title  "packets received out of order, count"
scalar scenarioPRJP1.node[5].app 	outOfOrderPk:sum(packetBytes) 	0
attr interpolationmode  none
attr source  outOfOrderPk
attr title  "packets received out of order, sum(packetBytes)"
scalar scenarioPRJP1.node[5].app 	rcvdPk:count 	195
attr interpolationmode  none
attr source  rcvdPk
attr title  "packets received, count"
scalar scenarioPRJP1.node[5].app 	rcvdPk:sum(packetBytes) 	99840
attr interpolationmode  none
attr source  rcvdPk
attr title  "packets received, sum(packetBytes)"
statistic scenarioPRJP1.node[5].app 	endToEndDelay:histogram
field count 195
field mean 3.9325017158002
field stddev 5.5035312206691
field sum 766.83783458104
field sqrsum 8891.629144225
field min 0.000945040031
field max 19.500229893352
attr interpolationmode  none
attr source  messageAge(rcvdPk)
attr title  "delay, histogram"
attr unit  s
bin	-INF	0
bin	-9.1399971513525	0
bin	-7.921204859168	0
bin	-6.7024125669836	0
bin	-5.4836202747991	0
bin	-4.2648279826146	0
bin	-3.0460356904302	0
bin	-1.8272433982457	0
bin	-0.60845110606123	107
bin	0.61034118612323	5
bin	1.8291334783077	7
bin	3.0479257704922	10
bin	4.2667180626766	4
bin	5.4855103548611	12
bin	6.7043026470456	7
bin	7.92309493923	6
bin	9.1418872314145	5
bin	10.360679523599	6
bin	11.579471815783	4
bin	12.798264107968	4
bin	14.017056400152	8
bin	15.235848692337	4
bin	16.454640984521	1
bin	17.673433276706	2
bin	18.89222556889	3
bin	20.111017861075	0
bin	21.329810153259	0
bin	22.548602445444	0
bin	23.767394737628	0
bin	24.986187029813	0
bin	26.204979321997	0
bin	27.423771614181	0
scalar scenarioPRJP1.node[5].app 	sentPk:count 	2608
attr interpolationmode  none
attr source  sentPk
attr title  "packets sent, count"
scalar scenarioPRJP1.node[5].app 	sentPk:sum(packetBytes) 	1335296
attr interpolationmode  none
attr source  sentPk
attr title  "packets sent, sum(packetBytes)"
scalar scenarioPRJP1.node[5].udp 	droppedPkBadChecksum:count 	0
attr interpolationmode  none
attr title  "packets dropped (checksum error), count"
scalar scenarioPRJP1.node[5].udp 	droppedPkWrongPort:count 	0
attr interpolationmode  none
attr title  "packets dropped (wrong port), count"
scalar scenarioPRJP1.node[5].udp 	passedUpPk:count 	250
attr interpolationmode  none
attr title  "packets passed up, count"
scalar scenarioPRJP1.node[5].udp 	rcvdPk:count 	250
attr interpolationmode  none
attr source  rcvdPk
attr title  "packets received, count"
scalar scenarioPRJP1.node[5].udp 	rcvdPk:sum(packetBytes) 	130000
attr interpolationmode  none
attr source  rcvdPk
attr title  "packets received, sum(packetBytes)"
scalar scenarioPRJP1.node[5].udp 	sentPk:count 	2608
attr interpolationmode  none
attr source  sentPk
attr title  "packets sent, count"
scalar scenarioPRJP1.node[5].udp 	sentPk:sum(packetBytes) 	1356160
attr interpolationmode  none
attr source  sentPk
attr title  "packets sent, sum(packetBytes)"
scalar scenarioPRJP1.node[5].networkLayer.arp 	failedARPResolution:count 	0
attr title  "ARP failed resolutions, count"
scalar scenarioPRJP1.node[5].networkLayer.arp 	completedARPResolution:count 	19
attr title  "ARP completed resolutions, count"
scalar scenarioPRJP1.node[5].networkLayer.arp 	initiatedARPResolution:count 	7
attr title  "ARP initiated resolutions, count"
scalar scenarioPRJP1.node[5].networkLayer.arp 	sentReply:count 	9
attr title  "ARP replies sent, count"
scalar scenarioPRJP1.node[5].networkLayer.arp 	sentReq:count 	7
attr title  "ARP request sent, count"
scalar scenarioPRJP1.node[5].mobility 	startTime 	2.5
scalar scenarioPRJP1.node[5].mobility 	totalTime 	947.5
scalar scenarioPRJP1.node[5].mobility 	stopTime 	950
scalar scenarioPRJP1.node[5].mobility 	minSpeed 	2.4754445647132e-13
scalar scenarioPRJP1.node[5].mobility 	maxSpeed 	20.252061730943
scalar scenarioPRJP1.node[5].mobility 	totalDistance 	9878.0568472745
scalar scenarioPRJP1.node[5].mobility 	totalCO2Emission 	2755.8532266614
scalar scenarioPRJP1.node[5].wlan.mgmt 	dataQueueLen:max 	0
attr interpolationmode  sample-hold
attr title  "data queue length, max"
scalar scenarioPRJP1.node[5].wlan.mgmt 	dataQueueLen:timeavg 	0
attr interpolationmode  sample-hold
attr title  "data queue length, timeavg"
scalar scenarioPRJP1.node[5].wlan.mgmt 	dropPkByQueue:count 	0
attr interpolationmode  none
attr source  dropPkByQueue
attr title  "packets dropped by queue, count"
scalar scenarioPRJP1.node[5].wlan.mgmt 	dropPkByQueue:sum(packetBytes) 	0
attr interpolationmode  none
attr source  dropPkByQueue
attr title  "packets dropped by queue, sum(packetBytes)"
scalar scenarioPRJP1.node[5].wlan.mac 	"number of received packets" 	1254
scalar scenarioPRJP1.node[5].wlan.mac 	"number of collisions" 	20
scalar scenarioPRJP1.node[5].wlan.mac 	"number of internal collisions" 	0
scalar scenarioPRJP1.node[5].wlan.mac 	"number of retry for AC 0" 	1127
scalar scenarioPRJP1.node[5].wlan.mac 	"number of retry for AC 1" 	0
scalar scenarioPRJP1.node[5].wlan.mac 	"number of retry for AC 2" 	0
scalar scenarioPRJP1.node[5].wlan.mac 	"number of retry for AC 3" 	0
scalar scenarioPRJP1.node[5].wlan.mac 	"sent and received bits" 	1468928
scalar scenarioPRJP1.node[5].wlan.mac 	"sent packet within AC 0" 	84
scalar scenarioPRJP1.node[5].wlan.mac 	"sent packet within AC 1" 	0
scalar scenarioPRJP1.node[5].wlan.mac 	"sent packet within AC 2" 	0
scalar scenarioPRJP1.node[5].wlan.mac 	"sent packet within AC 3" 	0
scalar scenarioPRJP1.node[5].wlan.mac 	"sent in TXOP " 	0
scalar scenarioPRJP1.node[5].wlan.mac 	"sentWithoutRetry AC 0" 	82
scalar scenarioPRJP1.node[5].wlan.mac 	"sentWithoutRetry AC 1" 	0
scalar scenarioPRJP1.node[5].wlan.mac 	"sentWithoutRetry AC 2" 	0
scalar scenarioPRJP1.node[5].wlan.mac 	"sentWithoutRetry AC 3" 	0
scalar scenarioPRJP1.node[5].wlan.mac 	"numGivenUp AC 0" 	187
scalar scenarioPRJP1.node[5].wlan.mac 	"numGivenUp AC 1" 	0
scalar scenarioPRJP1.node[5].wlan.mac 	"numGivenUp AC 2" 	0
scalar scenarioPRJP1.node[5].wlan.mac 	"numGivenUp AC 3" 	0
scalar scenarioPRJP1.node[5].wlan.mac 	"numDropped AC 0" 	0
scalar scenarioPRJP1.node[5].wlan.mac 	"numDropped AC 1" 	0
scalar scenarioPRJP1.node[5].wlan.mac 	"numDropped AC 2" 	0
scalar scenarioPRJP1.node[5].wlan.mac 	"numDropped AC 3" 	0
scalar scenarioPRJP1.node[5].wlan.mac 	rcvdPkFromLL:count 	4720
attr interpolationmode  none
attr source  packetReceivedFromLower
attr title  "packets received from lower layer, count"
scalar scenarioPRJP1.node[5].wlan.mac 	rcvdPkFromLL:sum(packetBytes) 	1227137
attr interpolationmode  none
attr source  packetReceivedFromLower
attr title  "packets received from lower layer, sum(packetBytes)"
scalar scenarioPRJP1.node[5].wlan.mac 	sentDownPk:count 	4226
attr interpolationmode  none
attr source  packetSentToLower
attr title  "packets sent to lower layer, count"
scalar scenarioPRJP1.node[5].wlan.mac 	sentDownPk:sum(packetBytes) 	922679
attr interpolationmode  none
attr source  packetSentToLower
attr title  "packets sent to lower layer, sum(packetBytes)"
scalar scenarioPRJP1.node[5].wlan.mac 	rcvdPkFromHL:count 	1845
attr interpolationmode  none
attr source  packetReceivedFromUpper
attr title  "packets received from higher layer, count"
scalar scenarioPRJP1.node[5].wlan.mac 	rcvdPkFromHL:sum(packetBytes) 	286277
attr interpolationmode  none
attr source  packetReceivedFromUpper
attr title  "packets received from higher layer, sum(packetBytes)"
scalar scenarioPRJP1.node[5].wlan.mac 	passedUpPk:count 	1114
attr interpolationmode  none
attr source  packetSentToUpper
attr title  "packets passed to higher layer, count"
scalar scenarioPRJP1.node[5].wlan.mac 	passedUpPk:sum(packetBytes) 	233449
attr interpolationmode  none
attr source  packetSentToUpper
attr title  "packets passed to higher layer, sum(packetBytes)"
statistic scenarioPRJP1.node[5].wlan.radio 	radioChannel:histogram
field count 1
field mean 3
field stddev -nan
field sum 3
field sqrsum 9
field min 3
field max 3
attr interpolationmode  sample-hold
attr source  radioChannelChanged
attr title  "Radio channel, histogram"
bin	-INF	0
bin	2	0
bin	3	1
bin	4	0
scalar scenarioPRJP1.node[5].wlan.radio 	transmissionState:count 	16904
attr interpolationmode  sample-hold
attr source  transmissionStateChanged
attr title  "Radio transmission state, count"
scalar scenarioPRJP1.node[5].wlan.radio 	receptionState:count 	17898
attr interpolationmode  sample-hold
attr source  receptionStateChanged
attr title  "Radio reception state, count"
scalar scenarioPRJP1.node[5].wlan.radio 	radioMode:count 	8454
attr interpolationmode  sample-hold
attr source  radioModeChanged
attr title  "Radio mode, count"
statistic scenarioPRJP1.node[5].wlan.radio 	symbolErrorRate:histogram
field count 0
field mean -nan
field stddev -nan
field sum 0
field sqrsum 0
field min -nan
field max -nan
attr source  symbolErrorRate
attr title  "Symbol error rate, histogram"
bin	-INF	0
bin	-0.5	0
bin	-0.46666666666667	0
bin	-0.43333333333333	0
bin	-0.4	0
bin	-0.36666666666667	0
bin	-0.33333333333333	0
bin	-0.3	0
bin	-0.26666666666667	0
bin	-0.23333333333333	0
bin	-0.2	0
bin	-0.16666666666667	0
bin	-0.13333333333333	0
bin	-0.1	0
bin	-0.066666666666667	0
bin	-0.033333333333333	0
bin	0	0
bin	0.033333333333333	0
bin	0.066666666666667	0
bin	0.1	0
bin	0.13333333333333	0
bin	0.16666666666667	0
bin	0.2	0
bin	0.23333333333333	0
bin	0.26666666666667	0
bin	0.3	0
bin	0.33333333333333	0
bin	0.36666666666667	0
bin	0.4	0
bin	0.43333333333333	0
bin	0.46666666666667	0
bin	0.5	0
statistic scenarioPRJP1.node[5].wlan.radio 	bitErrorRate:histogram
field count 0
field mean -nan
field stddev -nan
field sum 0
field sqrsum 0
field min -nan
field max -nan
attr source  bitErrorRate
attr title  "Bit error rate, histogram"
bin	-INF	0
bin	-0.5	0
bin	-0.46666666666667	0
bin	-0.43333333333333	0
bin	-0.4	0
bin	-0.36666666666667	0
bin	-0.33333333333333	0
bin	-0.3	0
bin	-0.26666666666667	0
bin	-0.23333333333333	0
bin	-0.2	0
bin	-0.16666666666667	0
bin	-0.13333333333333	0
bin	-0.1	0
bin	-0.066666666666667	0
bin	-0.033333333333333	0
bin	0	0
bin	0.033333333333333	0
bin	0.066666666666667	0
bin	0.1	0
bin	0.13333333333333	0
bin	0.16666666666667	0
bin	0.2	0
bin	0.23333333333333	0
bin	0.26666666666667	0
bin	0.3	0
bin	0.33333333333333	0
bin	0.36666666666667	0
bin	0.4	0
bin	0.43333333333333	0
bin	0.46666666666667	0
bin	0.5	0
statistic scenarioPRJP1.node[5].wlan.radio 	packetErrorRate:histogram
field count 4720
field mean 0.0040726109513161
field stddev 0.059387708792439
field sum 19.222723690212
field sqrsum 16.721727565564
field min 0
field max 1
attr source  packetErrorRate
attr title  "Packet error rate, histogram"
bin	-INF	0
bin	-0.031731235351677	0
bin	-0.027500403971453	0
bin	-0.02326957259123	0
bin	-0.019038741211006	0
bin	-0.014807909830782	0
bin	-0.010577078450559	0
bin	-0.0063462470703354	0
bin	-0.0021154156901118	4690
bin	0.0021154156901118	0
bin	0.0063462470703353	0
bin	0.010577078450559	0
bin	0.014807909830782	1
bin	0.019038741211006	1
bin	0.02326957259123	0
bin	0.027500403971453	1
bin	0.031731235351677	1
bin	0.0359620667319	0
bin	0.040192898112124	0
bin	0.044423729492347	0
bin	0.048654560872571	0
bin	0.052885392252795	0
bin	0.057116223633018	0
bin	0.061347055013242	1
bin	0.065577886393465	0
bin	0.069808717773689	0
bin	0.074039549153912	0
bin	0.078270380534136	0
bin	0.08250121191436	0
bin	0.086732043294583	0
bin	0.090962874674807	0
bin	0.09519370605503	25
statistic scenarioPRJP1.node[5].wlan.radio 	minSNIR:histogram
field count 4720
field mean 1951.6885088729
field stddev 8330.9719868208
field sum 9211969.7618799
field sqrsum 345501535271.41
field min 0.87532990218031
field max 187079.05379259
attr source  minSNIR
attr title  "Min SNIR, histogram"
bin	-INF	0
bin	-17913.362725721	0
bin	-15524.613958053	0
bin	-13135.865190386	0
bin	-10747.116422719	0
bin	-8358.3676550514	0
bin	-5969.618887384	0
bin	-3580.8701197167	0
bin	-1192.1213520493	4113
bin	1196.627415618	269
bin	3585.3761832853	41
bin	5974.1249509527	44
bin	8362.87371862	28
bin	10751.622486287	26
bin	13140.371253955	28
bin	15529.120021622	20
bin	17917.868789289	17
bin	20306.617556957	12
bin	22695.366324624	6
bin	25084.115092291	6
bin	27472.863859959	15
bin	29861.612627626	11
bin	32250.361395293	26
bin	34639.110162961	3
bin	37027.858930628	6
bin	39416.607698295	4
bin	41805.356465963	5
bin	44194.10523363	2
bin	46582.854001297	6
bin	48971.602768965	0
bin	51360.351536632	6
bin	53749.100304299	26
scalar scenarioPRJP1.node[5].lo0.lo 	droppedPkBitError:count 	0
attr interpolationmode  none
attr source  dropPkBitError
attr title  "packets dropped/bit error, count"
scalar scenarioPRJP1.node[5].lo0.lo 	droppedPkBitError:sum(packetBytes) 	0
attr interpolationmode  none
attr source  dropPkBitError
attr title  "packets dropped/bit error, sum(packetBytes)"
scalar scenarioPRJP1.node[5].lo0.lo 	rcvdPkFromHL:count 	0
attr interpolationmode  none
attr source  packetReceivedFromUpper
attr title  "packets received from higher layer, count"
scalar scenarioPRJP1.node[5].lo0.lo 	rcvdPkFromHL:sum(packetBytes) 	0
attr interpolationmode  none
attr source  packetReceivedFromUpper
attr title  "packets received from higher layer, sum(packetBytes)"
scalar scenarioPRJP1.node[5].lo0.lo 	passedUpPk:count 	0
attr interpolationmode  none
attr source  packetSentToUpper
attr title  "packets passed to higher layer, count"
scalar scenarioPRJP1.node[5].lo0.lo 	passedUpPk:sum(packetBytes) 	0
attr interpolationmode  none
attr source  packetSentToUpper
attr title  "packets passed to higher layer, sum(packetBytes)"
scalar scenarioPRJP1.node[1].app 	"Total sent" 	2604
scalar scenarioPRJP1.node[1].app 	"Total received" 	352
scalar scenarioPRJP1.node[1].app 	"Total deleted" 	29
scalar scenarioPRJP1.node[1].app 	dropPk:count 	29
attr interpolationmode  none
attr source  dropPk
attr title  "packets dropped, count"
scalar scenarioPRJP1.node[1].app 	dropPk:sum(packetBytes) 	14848
attr interpolationmode  none
attr source  dropPk
attr title  "packets dropped, sum(packetBytes)"
scalar scenarioPRJP1.node[1].app 	outOfOrderPk:count 	3
attr interpolationmode  none
attr source  outOfOrderPk
attr title  "packets received out of order, count"
scalar scenarioPRJP1.node[1].app 	outOfOrderPk:sum(packetBytes) 	1536
attr interpolationmode  none
attr source  outOfOrderPk
attr title  "packets received out of order, sum(packetBytes)"
scalar scenarioPRJP1.node[1].app 	rcvdPk:count 	352
attr interpolationmode  none
attr source  rcvdPk
attr title  "packets received, count"
scalar scenarioPRJP1.node[1].app 	rcvdPk:sum(packetBytes) 	180224
attr interpolationmode  none
attr source  rcvdPk
attr title  "packets received, sum(packetBytes)"
statistic scenarioPRJP1.node[1].app 	endToEndDelay:histogram
field count 352
field mean 1.9419578189781
field stddev 4.4470231499294
field sum 683.56915228029
field sqrsum 8268.8436885816
field min 0.000945011007
field max 19.815287159927
attr interpolationmode  none
attr source  messageAge(rcvdPk)
attr title  "delay, histogram"
attr unit  s
bin	-INF	0
bin	-9.739617859833	0
bin	-8.4408761421639	0
bin	-7.1421344244949	0
bin	-5.8433927068258	0
bin	-4.5446509891567	0
bin	-3.2459092714877	0
bin	-1.9471675538186	0
bin	-0.64842583614953	277
bin	0.65031588151953	7
bin	1.9490575991886	4
bin	3.2477993168577	6
bin	4.5465410345267	8
bin	5.8452827521958	8
bin	7.1440244698649	5
bin	8.4427661875339	5
bin	9.741507905203	8
bin	11.040249622872	4
bin	12.338991340541	2
bin	13.63773305821	5
bin	14.936474775879	4
bin	16.235216493548	1
bin	17.533958211217	4
bin	18.832699928886	4
bin	20.131441646556	0
bin	21.430183364225	0
bin	22.728925081894	0
bin	24.027666799563	0
bin	25.326408517232	0
bin	26.625150234901	0
bin	27.92389195257	0
bin	29.222633670239	0
scalar scenarioPRJP1.node[1].app 	sentPk:count 	2604
attr interpolationmode  none
attr source  sentPk
attr title  "packets sent, count"
scalar scenarioPRJP1.node[1].app 	sentPk:sum(packetBytes) 	1333248
attr interpolationmode  none
attr source  sentPk
attr title  "packets sent, sum(packetBytes)"
scalar scenarioPRJP1.node[1].udp 	droppedPkBadChecksum:count 	0
attr interpolationmode  none
attr title  "packets dropped (checksum error), count"
scalar scenarioPRJP1.node[1].udp 	droppedPkWrongPort:count 	0
attr interpolationmode  none
attr title  "packets dropped (wrong port), count"
scalar scenarioPRJP1.node[1].udp 	passedUpPk:count 	384
attr interpolationmode  none
attr title  "packets passed up, count"
scalar scenarioPRJP1.node[1].udp 	rcvdPk:count 	384
attr interpolationmode  none
attr source  rcvdPk
attr title  "packets received, count"
scalar scenarioPRJP1.node[1].udp 	rcvdPk:sum(packetBytes) 	199680
attr interpolationmode  none
attr source  rcvdPk
attr title  "packets received, sum(packetBytes)"
scalar scenarioPRJP1.node[1].udp 	sentPk:count 	2604
attr interpolationmode  none
attr source  sentPk
attr title  "packets sent, count"
scalar scenarioPRJP1.node[1].udp 	sentPk:sum(packetBytes) 	1354080
attr interpolationmode  none
attr source  sentPk
attr title  "packets sent, sum(packetBytes)"
scalar scenarioPRJP1.node[1].networkLayer.arp 	failedARPResolution:count 	0
attr title  "ARP failed resolutions, count"
scalar scenarioPRJP1.node[1].networkLayer.arp 	completedARPResolution:count 	23
attr title  "ARP completed resolutions, count"
scalar scenarioPRJP1.node[1].networkLayer.arp 	initiatedARPResolution:count 	7
attr title  "ARP initiated resolutions, count"
scalar scenarioPRJP1.node[1].networkLayer.arp 	sentReply:count 	11
attr title  "ARP replies sent, count"
scalar scenarioPRJP1.node[1].networkLayer.arp 	sentReq:count 	7
attr title  "ARP request sent, count"
scalar scenarioPRJP1.node[1].mobility 	startTime 	0.1
scalar scenarioPRJP1.node[1].mobility 	totalTime 	949.9
scalar scenarioPRJP1.node[1].mobility 	stopTime 	950
scalar scenarioPRJP1.node[1].mobility 	minSpeed 	2.4754526283155e-13
scalar scenarioPRJP1.node[1].mobility 	maxSpeed 	17.107807983154
scalar scenarioPRJP1.node[1].mobility 	totalDistance 	9268.4591956462
scalar scenarioPRJP1.node[1].mobility 	totalCO2Emission 	2408.0182654799
scalar scenarioPRJP1.node[1].wlan.mgmt 	dataQueueLen:max 	8
attr interpolationmode  sample-hold
attr title  "data queue length, max"
scalar scenarioPRJP1.node[1].wlan.mgmt 	dataQueueLen:timeavg 	0
attr interpolationmode  sample-hold
attr title  "data queue length, timeavg"
scalar scenarioPRJP1.node[1].wlan.mgmt 	dropPkByQueue:count 	0
attr interpolationmode  none
attr source  dropPkByQueue
attr title  "packets dropped by queue, count"
scalar scenarioPRJP1.node[1].wlan.mgmt 	dropPkByQueue:sum(packetBytes) 	0
attr interpolationmode  none
attr source  dropPkByQueue
attr title  "packets dropped by queue, sum(packetBytes)"
scalar scenarioPRJP1.node[1].wlan.mac 	"number of received packets" 	1216
scalar scenarioPRJP1.node[1].wlan.mac 	"number of collisions" 	56
scalar scenarioPRJP1.node[1].wlan.mac 	"number of internal collisions" 	0
scalar scenarioPRJP1.node[1].wlan.mac 	"number of retry for AC 0" 	906
scalar scenarioPRJP1.node[1].wlan.mac 	"number of retry for AC 1" 	0
scalar scenarioPRJP1.node[1].wlan.mac 	"number of retry for AC 2" 	0
scalar scenarioPRJP1.node[1].wlan.mac 	"number of retry for AC 3" 	0
scalar scenarioPRJP1.node[1].wlan.mac 	"sent and received bits" 	2501192
scalar scenarioPRJP1.node[1].wlan.mac 	"sent packet within AC 0" 	250
scalar scenarioPRJP1.node[1].wlan.mac 	"sent packet within AC 1" 	0
scalar scenarioPRJP1.node[1].wlan.mac 	"sent packet within AC 2" 	0
scalar scenarioPRJP1.node[1].wlan.mac 	"sent packet within AC 3" 	0
scalar scenarioPRJP1.node[1].wlan.mac 	"sent in TXOP " 	0
scalar scenarioPRJP1.node[1].wlan.mac 	"sentWithoutRetry AC 0" 	250
scalar scenarioPRJP1.node[1].wlan.mac 	"sentWithoutRetry AC 1" 	0
scalar scenarioPRJP1.node[1].wlan.mac 	"sentWithoutRetry AC 2" 	0
scalar scenarioPRJP1.node[1].wlan.mac 	"sentWithoutRetry AC 3" 	0
scalar scenarioPRJP1.node[1].wlan.mac 	"numGivenUp AC 0" 	151
scalar scenarioPRJP1.node[1].wlan.mac 	"numGivenUp AC 1" 	0
scalar scenarioPRJP1.node[1].wlan.mac 	"numGivenUp AC 2" 	0
scalar scenarioPRJP1.node[1].wlan.mac 	"numGivenUp AC 3" 	0
scalar scenarioPRJP1.node[1].wlan.mac 	"numDropped AC 0" 	0
scalar scenarioPRJP1.node[1].wlan.mac 	"numDropped AC 1" 	0
scalar scenarioPRJP1.node[1].wlan.mac 	"numDropped AC 2" 	0
scalar scenarioPRJP1.node[1].wlan.mac 	"numDropped AC 3" 	0
scalar scenarioPRJP1.node[1].wlan.mac 	rcvdPkFromLL:count 	6807
attr interpolationmode  none
attr source  packetReceivedFromLower
attr title  "packets received from lower layer, count"
scalar scenarioPRJP1.node[1].wlan.mac 	rcvdPkFromLL:sum(packetBytes) 	1570791
attr interpolationmode  none
attr source  packetReceivedFromLower
attr title  "packets received from lower layer, sum(packetBytes)"
scalar scenarioPRJP1.node[1].wlan.mac 	sentDownPk:count 	4365
attr interpolationmode  none
attr source  packetSentToLower
attr title  "packets sent to lower layer, count"
scalar scenarioPRJP1.node[1].wlan.mac 	sentDownPk:sum(packetBytes) 	902826
attr interpolationmode  none
attr source  packetSentToLower
attr title  "packets sent to lower layer, sum(packetBytes)"
scalar scenarioPRJP1.node[1].wlan.mac 	rcvdPkFromHL:count 	2243
attr interpolationmode  none
attr source  packetReceivedFromUpper
attr title  "packets received from higher layer, count"
scalar scenarioPRJP1.node[1].wlan.mac 	rcvdPkFromHL:sum(packetBytes) 	394528
attr interpolationmode  none
attr source  packetReceivedFromUpper
attr title  "packets received from higher layer, sum(packetBytes)"
scalar scenarioPRJP1.node[1].wlan.mac 	passedUpPk:count 	2295
attr interpolationmode  none
attr source  packetSentToUpper
attr title  "packets passed to higher layer, count"
scalar scenarioPRJP1.node[1].wlan.mac 	passedUpPk:sum(packetBytes) 	416209
attr interpolationmode  none
attr source  packetSentToUpper
attr title  "packets passed to higher layer, sum(packetBytes)"
statistic scenarioPRJP1.node[1].wlan.radio 	radioChannel:histogram
field count 1
field mean 3
field stddev -nan
field sum 3
field sqrsum 9
field min 3
field max 3
attr interpolationmode  sample-hold
attr source  radioChannelChanged
attr title  "Radio channel, histogram"
bin	-INF	0
bin	2	0
bin	3	1
bin	4	0
scalar scenarioPRJP1.node[1].wlan.radio 	transmissionState:count 	17460
attr interpolationmode  sample-hold
attr source  transmissionStateChanged
attr title  "Radio transmission state, count"
scalar scenarioPRJP1.node[1].wlan.radio 	receptionState:count 	22351
attr interpolationmode  sample-hold
attr source  receptionStateChanged
attr title  "Radio reception state, count"
scalar scenarioPRJP1.node[1].wlan.radio 	radioMode:count 	8732
attr interpolationmode  sample-hold
attr source  radioModeChanged
attr title  "Radio mode, count"
statistic scenarioPRJP1.node[1].wlan.radio 	symbolErrorRate:histogram
field count 0
field mean -nan
field stddev -nan
field sum 0
field sqrsum 0
field min -nan
field max -nan
attr source  symbolErrorRate
attr title  "Symbol error rate, histogram"
bin	-INF	0
bin	-0.5	0
bin	-0.46666666666667	0
bin	-0.43333333333333	0
bin	-0.4	0
bin	-0.36666666666667	0
bin	-0.33333333333333	0
bin	-0.3	0
bin	-0.26666666666667	0
bin	-0.23333333333333	0
bin	-0.2	0
bin	-0.16666666666667	0
bin	-0.13333333333333	0
bin	-0.1	0
bin	-0.066666666666667	0
bin	-0.033333333333333	0
bin	0	0
bin	0.033333333333333	0
bin	0.066666666666667	0
bin	0.1	0
bin	0.13333333333333	0
bin	0.16666666666667	0
bin	0.2	0
bin	0.23333333333333	0
bin	0.26666666666667	0
bin	0.3	0
bin	0.33333333333333	0
bin	0.36666666666667	0
bin	0.4	0
bin	0.43333333333333	0
bin	0.46666666666667	0
bin	0.5	0
statistic scenarioPRJP1.node[1].wlan.radio 	bitErrorRate:histogram
field count 0
field mean -nan
field stddev -nan
field sum 0
field sqrsum 0
field min -nan
field max -nan
attr source  bitErrorRate
attr title  "Bit error rate, histogram"
bin	-INF	0
bin	-0.5	0
bin	-0.46666666666667	0
bin	-0.43333333333333	0
bin	-0.4	0
bin	-0.36666666666667	0
bin	-0.33333333333333	0
bin	-0.3	0
bin	-0.26666666666667	0
bin	-0.23333333333333	0
bin	-0.2	0
bin	-0.16666666666667	0
bin	-0.13333333333333	0
bin	-0.1	0
bin	-0.066666666666667	0
bin	-0.033333333333333	0
bin	0	0
bin	0.033333333333333	0
bin	0.066666666666667	0
bin	0.1	0
bin	0.13333333333333	0
bin	0.16666666666667	0
bin	0.2	0
bin	0.23333333333333	0
bin	0.26666666666667	0
bin	0.3	0
bin	0.33333333333333	0
bin	0.36666666666667	0
bin	0.4	0
bin	0.43333333333333	0
bin	0.46666666666667	0
bin	0.5	0
statistic scenarioPRJP1.node[1].wlan.radio 	packetErrorRate:histogram
field count 6807
field mean 0.0084485150309089
field stddev 0.089132532926194
field sum 57.509041815397
field sqrsum 54.556870950451
field min 0
field max 1
attr source  packetErrorRate
attr title  "Packet error rate, histogram"
bin	-INF	0
bin	-0.5	0
bin	-0.46666666666667	0
bin	-0.43333333333333	0
bin	-0.4	0
bin	-0.36666666666667	0
bin	-0.33333333333333	0
bin	-0.3	0
bin	-0.26666666666667	0
bin	-0.23333333333333	0
bin	-0.2	0
bin	-0.16666666666667	0
bin	-0.13333333333333	0
bin	-0.1	0
bin	-0.066666666666667	0
bin	-0.033333333333333	0
bin	0	6736
bin	0.033333333333333	3
bin	0.066666666666667	6
bin	0.1	0
bin	0.13333333333333	0
bin	0.16666666666667	0
bin	0.2	1
bin	0.23333333333333	0
bin	0.26666666666667	0
bin	0.3	0
bin	0.33333333333333	1
bin	0.36666666666667	0
bin	0.4	1
bin	0.43333333333333	0
bin	0.46666666666667	4
bin	0.5	55
statistic scenarioPRJP1.node[1].wlan.radio 	minSNIR:histogram
field count 6807
field mean 50320.741467058
field stddev 152888.28464011
field sum 342533287.16626
field sqrsum 1.7632560549817e+14
field min 0.35116065788054
field max 753239.71923443
attr source  minSNIR
attr title  "Min SNIR, histogram"
bin	-INF	0
bin	-76744.211337574	0
bin	-66486.88783603	0
bin	-56229.564334487	0
bin	-45972.240832943	0
bin	-35714.9173314	0
bin	-25457.593829856	0
bin	-15200.270328313	0
bin	-4942.9468267696	4670
bin	5314.3766747738	286
bin	15571.700176317	524
bin	25829.023677861	346
bin	36086.347179404	85
bin	46343.670680948	34
bin	56600.994182491	32
bin	66858.317684034	22
bin	77115.641185578	30
bin	87372.964687121	14
bin	97630.288188665	10
bin	107887.61169021	15
bin	118144.93519175	20
bin	128402.25869329	4
bin	138659.58219484	11
bin	148916.90569638	12
bin	159174.22919793	11
bin	169431.55269947	304
bin	179688.87620101	6
bin	189946.19970256	1
bin	200203.5232041	2
bin	210460.84670564	4
bin	220718.17020719	1
bin	230975.49370873	363
scalar scenarioPRJP1.node[1].lo0.lo 	droppedPkBitError:count 	0
attr interpolationmode  none
attr source  dropPkBitError
attr title  "packets dropped/bit error, count"
scalar scenarioPRJP1.node[1].lo0.lo 	droppedPkBitError:sum(packetBytes) 	0
attr interpolationmode  none
attr source  dropPkBitError
attr title  "packets dropped/bit error, sum(packetBytes)"
scalar scenarioPRJP1.node[1].lo0.lo 	rcvdPkFromHL:count 	0
attr interpolationmode  none
attr source  packetReceivedFromUpper
attr title  "packets received from higher layer, count"
scalar scenarioPRJP1.node[1].lo0.lo 	rcvdPkFromHL:sum(packetBytes) 	0
attr interpolationmode  none
attr source  packetReceivedFromUpper
attr title  "packets received from higher layer, sum(packetBytes)"
scalar scenarioPRJP1.node[1].lo0.lo 	passedUpPk:count 	0
attr interpolationmode  none
attr source  packetSentToUpper
attr title  "packets passed to higher layer, count"
scalar scenarioPRJP1.node[1].lo0.lo 	passedUpPk:sum(packetBytes) 	0
attr interpolationmode  none
attr source  packetSentToUpper
attr title  "packets passed to higher layer, sum(packetBytes)"
scalar scenarioPRJP1.node[6].app 	"Total sent" 	2610
scalar scenarioPRJP1.node[6].app 	"Total received" 	197
scalar scenarioPRJP1.node[6].app 	"Total deleted" 	34
scalar scenarioPRJP1.node[6].app 	dropPk:count 	34
attr interpolationmode  none
attr source  dropPk
attr title  "packets dropped, count"
scalar scenarioPRJP1.node[6].app 	dropPk:sum(packetBytes) 	17408
attr interpolationmode  none
attr source  dropPk
attr title  "packets dropped, sum(packetBytes)"
scalar scenarioPRJP1.node[6].app 	outOfOrderPk:count 	0
attr interpolationmode  none
attr source  outOfOrderPk
attr title  "packets received out of order, count"
scalar scenarioPRJP1.node[6].app 	outOfOrderPk:sum(packetBytes) 	0
attr interpolationmode  none
attr source  outOfOrderPk
attr title  "packets received out of order, sum(packetBytes)"
scalar scenarioPRJP1.node[6].app 	rcvdPk:count 	197
attr interpolationmode  none
attr source  rcvdPk
attr title  "packets received, count"
scalar scenarioPRJP1.node[6].app 	rcvdPk:sum(packetBytes) 	100864
attr interpolationmode  none
attr source  rcvdPk
attr title  "packets received, sum(packetBytes)"
statistic scenarioPRJP1.node[6].app 	endToEndDelay:histogram
field count 197
field mean 3.2576797852281
field stddev 5.572331795939
field sum 641.76291768993
field sqrsum 8176.6308860979
field min 0.00094501215
field max 19.905058391529
attr interpolationmode  none
attr source  messageAge(rcvdPk)
attr title  "delay, histogram"
attr unit  s
bin	-INF	0
bin	-9.946547853899	0
bin	-8.6202154717591	0
bin	-7.2938830896193	0
bin	-5.9675507074794	0
bin	-4.6412183253395	0
bin	-3.3148859431997	0
bin	-1.9885535610598	0
bin	-0.66222117891993	129
bin	0.66411120321994	4
bin	1.9904435853598	6
bin	3.3167759674997	8
bin	4.6431083496395	6
bin	5.9694407317794	5
bin	7.2957731139193	10
bin	8.6221054960591	1
bin	9.948437878199	2
bin	11.274770260339	5
bin	12.601102642479	2
bin	13.927435024619	4
bin	15.253767406758	3
bin	16.580099788898	7
bin	17.906432171038	1
bin	19.232764553178	4
bin	20.559096935318	0
bin	21.885429317458	0
bin	23.211761699598	0
bin	24.538094081738	0
bin	25.864426463877	0
bin	27.190758846017	0
bin	28.517091228157	0
bin	29.843423610297	0
scalar scenarioPRJP1.node[6].app 	sentPk:count 	2610
attr interpolationmode  none
attr source  sentPk
attr title  "packets sent, count"
scalar scenarioPRJP1.node[6].app 	sentPk:sum(packetBytes) 	1336320
attr interpolationmode  none
attr source  sentPk
attr title  "packets sent, sum(packetBytes)"
scalar scenarioPRJP1.node[6].udp 	droppedPkBadChecksum:count 	0
attr interpolationmode  none
attr title  "packets dropped (checksum error), count"
scalar scenarioPRJP1.node[6].udp 	droppedPkWrongPort:count 	0
attr interpolationmode  none
attr title  "packets dropped (wrong port), count"
scalar scenarioPRJP1.node[6].udp 	passedUpPk:count 	231
attr interpolationmode  none
attr title  "packets passed up, count"
scalar scenarioPRJP1.node[6].udp 	rcvdPk:count 	231
attr interpolationmode  none
attr source  rcvdPk
attr title  "packets received, count"
scalar scenarioPRJP1.node[6].udp 	rcvdPk:sum(packetBytes) 	120120
attr interpolationmode  none
attr source  rcvdPk
attr title  "packets received, sum(packetBytes)"
scalar scenarioPRJP1.node[6].udp 	sentPk:count 	2610
attr interpolationmode  none
attr source  sentPk
attr title  "packets sent, count"
scalar scenarioPRJP1.node[6].udp 	sentPk:sum(packetBytes) 	1357200
attr interpolationmode  none
attr source  sentPk
attr title  "packets sent, sum(packetBytes)"
scalar scenarioPRJP1.node[6].networkLayer.arp 	failedARPResolution:count 	0
attr title  "ARP failed resolutions, count"
scalar scenarioPRJP1.node[6].networkLayer.arp 	completedARPResolution:count 	17
attr title  "ARP completed resolutions, count"
scalar scenarioPRJP1.node[6].networkLayer.arp 	initiatedARPResolution:count 	4
attr title  "ARP initiated resolutions, count"
scalar scenarioPRJP1.node[6].networkLayer.arp 	sentReply:count 	11
attr title  "ARP replies sent, count"
scalar scenarioPRJP1.node[6].networkLayer.arp 	sentReq:count 	4
attr title  "ARP request sent, count"
scalar scenarioPRJP1.node[6].mobility 	startTime 	2.5
scalar scenarioPRJP1.node[6].mobility 	totalTime 	947.5
scalar scenarioPRJP1.node[6].mobility 	stopTime 	950
scalar scenarioPRJP1.node[6].mobility 	minSpeed 	2.475461905262e-13
scalar scenarioPRJP1.node[6].mobility 	maxSpeed 	18.737210662229
scalar scenarioPRJP1.node[6].mobility 	totalDistance 	8927.605802391
scalar scenarioPRJP1.node[6].mobility 	totalCO2Emission 	2515.7742493889
scalar scenarioPRJP1.node[6].wlan.mgmt 	dataQueueLen:max 	0
attr interpolationmode  sample-hold
attr title  "data queue length, max"
scalar scenarioPRJP1.node[6].wlan.mgmt 	dataQueueLen:timeavg 	0
attr interpolationmode  sample-hold
attr title  "data queue length, timeavg"
scalar scenarioPRJP1.node[6].wlan.mgmt 	dropPkByQueue:count 	0
attr interpolationmode  none
attr source  dropPkByQueue
attr title  "packets dropped by queue, count"
scalar scenarioPRJP1.node[6].wlan.mgmt 	dropPkByQueue:sum(packetBytes) 	0
attr interpolationmode  none
attr source  dropPkByQueue
attr title  "packets dropped by queue, sum(packetBytes)"
scalar scenarioPRJP1.node[6].wlan.mac 	"number of received packets" 	1434
scalar scenarioPRJP1.node[6].wlan.mac 	"number of collisions" 	60
scalar scenarioPRJP1.node[6].wlan.mac 	"number of internal collisions" 	0
scalar scenarioPRJP1.node[6].wlan.mac 	"number of retry for AC 0" 	1188
scalar scenarioPRJP1.node[6].wlan.mac 	"number of retry for AC 1" 	0
scalar scenarioPRJP1.node[6].wlan.mac 	"number of retry for AC 2" 	0
scalar scenarioPRJP1.node[6].wlan.mac 	"number of retry for AC 3" 	0
scalar scenarioPRJP1.node[6].wlan.mac 	"sent and received bits" 	1710048
scalar scenarioPRJP1.node[6].wlan.mac 	"sent packet within AC 0" 	120
scalar scenarioPRJP1.node[6].wlan.mac 	"sent packet within AC 1" 	0
scalar scenarioPRJP1.node[6].wlan.mac 	"sent packet within AC 2" 	0
scalar scenarioPRJP1.node[6].wlan.mac 	"sent packet within AC 3" 	0
scalar scenarioPRJP1.node[6].wlan.mac 	"sent in TXOP " 	0
scalar scenarioPRJP1.node[6].wlan.mac 	"sentWithoutRetry AC 0" 	120
scalar scenarioPRJP1.node[6].wlan.mac 	"sentWithoutRetry AC 1" 	0
scalar scenarioPRJP1.node[6].wlan.mac 	"sentWithoutRetry AC 2" 	0
scalar scenarioPRJP1.node[6].wlan.mac 	"sentWithoutRetry AC 3" 	0
scalar scenarioPRJP1.node[6].wlan.mac 	"numGivenUp AC 0" 	198
scalar scenarioPRJP1.node[6].wlan.mac 	"numGivenUp AC 1" 	0
scalar scenarioPRJP1.node[6].wlan.mac 	"numGivenUp AC 2" 	0
scalar scenarioPRJP1.node[6].wlan.mac 	"numGivenUp AC 3" 	0
scalar scenarioPRJP1.node[6].wlan.mac 	"numDropped AC 0" 	0
scalar scenarioPRJP1.node[6].wlan.mac 	"numDropped AC 1" 	0
scalar scenarioPRJP1.node[6].wlan.mac 	"numDropped AC 2" 	0
scalar scenarioPRJP1.node[6].wlan.mac 	"numDropped AC 3" 	0
scalar scenarioPRJP1.node[6].wlan.mac 	rcvdPkFromLL:count 	5203
attr interpolationmode  none
attr source  packetReceivedFromLower
attr title  "packets received from lower layer, count"
scalar scenarioPRJP1.node[6].wlan.mac 	rcvdPkFromLL:sum(packetBytes) 	1319770
attr interpolationmode  none
attr source  packetReceivedFromLower
attr title  "packets received from lower layer, sum(packetBytes)"
scalar scenarioPRJP1.node[6].wlan.mac 	sentDownPk:count 	4590
attr interpolationmode  none
attr source  packetSentToLower
attr title  "packets sent to lower layer, count"
scalar scenarioPRJP1.node[6].wlan.mac 	sentDownPk:sum(packetBytes) 	982846
attr interpolationmode  none
attr source  packetSentToLower
attr title  "packets sent to lower layer, sum(packetBytes)"
scalar scenarioPRJP1.node[6].wlan.mac 	rcvdPkFromHL:count 	1968
attr interpolationmode  none
attr source  packetReceivedFromUpper
attr title  "packets received from higher layer, count"
scalar scenarioPRJP1.node[6].wlan.mac 	rcvdPkFromHL:sum(packetBytes) 	320758
attr interpolationmode  none
attr source  packetReceivedFromUpper
attr title  "packets received from higher layer, sum(packetBytes)"
scalar scenarioPRJP1.node[6].wlan.mac 	passedUpPk:count 	1437
attr interpolationmode  none
attr source  packetSentToUpper
attr title  "packets passed to higher layer, count"
scalar scenarioPRJP1.node[6].wlan.mac 	passedUpPk:sum(packetBytes) 	281389
attr interpolationmode  none
attr source  packetSentToUpper
attr title  "packets passed to higher layer, sum(packetBytes)"
statistic scenarioPRJP1.node[6].wlan.radio 	radioChannel:histogram
field count 1
field mean 3
field stddev -nan
field sum 3
field sqrsum 9
field min 3
field max 3
attr interpolationmode  sample-hold
attr source  radioChannelChanged
attr title  "Radio channel, histogram"
bin	-INF	0
bin	2	0
bin	3	1
bin	4	0
scalar scenarioPRJP1.node[6].wlan.radio 	transmissionState:count 	18360
attr interpolationmode  sample-hold
attr source  transmissionStateChanged
attr title  "Radio transmission state, count"
scalar scenarioPRJP1.node[6].wlan.radio 	receptionState:count 	19597
attr interpolationmode  sample-hold
attr source  receptionStateChanged
attr title  "Radio reception state, count"
scalar scenarioPRJP1.node[6].wlan.radio 	radioMode:count 	9182
attr interpolationmode  sample-hold
attr source  radioModeChanged
attr title  "Radio mode, count"
statistic scenarioPRJP1.node[6].wlan.radio 	symbolErrorRate:histogram
field count 0
field mean -nan
field stddev -nan
field sum 0
field sqrsum 0
field min -nan
field max -nan
attr source  symbolErrorRate
attr title  "Symbol error rate, histogram"
bin	-INF	0
bin	-0.5	0
bin	-0.46666666666667	0
bin	-0.43333333333333	0
bin	-0.4	0
bin	-0.36666666666667	0
bin	-0.33333333333333	0
bin	-0.3	0
bin	-0.26666666666667	0
bin	-0.23333333333333	0
bin	-0.2	0
bin	-0.16666666666667	0
bin	-0.13333333333333	0
bin	-0.1	0
bin	-0.066666666666667	0
bin	-0.033333333333333	0
bin	0	0
bin	0.033333333333333	0
bin	0.066666666666667	0
bin	0.1	0
bin	0.13333333333333	0
bin	0.16666666666667	0
bin	0.2	0
bin	0.23333333333333	0
bin	0.26666666666667	0
bin	0.3	0
bin	0.33333333333333	0
bin	0.36666666666667	0
bin	0.4	0
bin	0.43333333333333	0
bin	0.46666666666667	0
bin	0.5	0
statistic scenarioPRJP1.node[6].wlan.radio 	bitErrorRate:histogram
field count 0
field mean -nan
field stddev -nan
field sum 0
field sqrsum 0
field min -nan
field max -nan
attr source  bitErrorRate
attr title  "Bit error rate, histogram"
bin	-INF	0
bin	-0.5	0
bin	-0.46666666666667	0
bin	-0.43333333333333	0
bin	-0.4	0
bin	-0.36666666666667	0
bin	-0.33333333333333	0
bin	-0.3	0
bin	-0.26666666666667	0
bin	-0.23333333333333	0
bin	-0.2	0
bin	-0.16666666666667	0
bin	-0.13333333333333	0
bin	-0.1	0
bin	-0.066666666666667	0
bin	-0.033333333333333	0
bin	0	0
bin	0.033333333333333	0
bin	0.066666666666667	0
bin	0.1	0
bin	0.13333333333333	0
bin	0.16666666666667	0
bin	0.2	0
bin	0.23333333333333	0
bin	0.26666666666667	0
bin	0.3	0
bin	0.33333333333333	0
bin	0.36666666666667	0
bin	0.4	0
bin	0.43333333333333	0
bin	0.46666666666667	0
bin	0.5	0
statistic scenarioPRJP1.node[6].wlan.radio 	packetErrorRate:histogram
field count 5203
field mean 0.011538409074265
field stddev 0.10531217835405
field sum 60.034342413402
field sqrsum 58.386287641402
field min 0
field max 1
attr source  packetErrorRate
attr title  "Packet error rate, histogram"
bin	-INF	0
bin	-0.5	0
bin	-0.46666666666667	0
bin	-0.43333333333333	0
bin	-0.4	0
bin	-0.36666666666667	0
bin	-0.33333333333333	0
bin	-0.3	0
bin	-0.26666666666667	0
bin	-0.23333333333333	0
bin	-0.2	0
bin	-0.16666666666667	0
bin	-0.13333333333333	0
bin	-0.1	0
bin	-0.066666666666667	0
bin	-0.033333333333333	0
bin	0	5139
bin	0.033333333333333	0
bin	0.066666666666667	0
bin	0.1	0
bin	0.13333333333333	1
bin	0.16666666666667	1
bin	0.2	0
bin	0.23333333333333	0
bin	0.26666666666667	0
bin	0.3	0
bin	0.33333333333333	0
bin	0.36666666666667	0
bin	0.4	1
bin	0.43333333333333	1
bin	0.46666666666667	0
bin	0.5	60
statistic scenarioPRJP1.node[6].wlan.radio 	minSNIR:histogram
field count 5203
field mean 18776.613257778
field stddev 86122.844618226
field sum 97694718.78022
field sqrsum 40418360939297
field min 0.35536204174586
field max 753239.71923443
attr source  minSNIR
attr title  "Min SNIR, histogram"
bin	-INF	0
bin	-18202.520032609	0
bin	-15747.062544776	0
bin	-13291.605056943	0
bin	-10836.14756911	0
bin	-8380.6900812769	0
bin	-5925.2325934439	0
bin	-3469.7751056109	0
bin	-1014.3176177779	4255
bin	1441.1398700551	192
bin	3896.5973578881	63
bin	6352.054845721	44
bin	8807.512333554	36
bin	11262.969821387	35
bin	13718.42730922	12
bin	16173.884797053	24
bin	18629.342284886	95
bin	21084.799772719	11
bin	23540.257260552	12
bin	25995.714748385	11
bin	28451.172236218	6
bin	30906.629724051	6
bin	33362.087211884	6
bin	35817.544699717	8
bin	38273.00218755	4
bin	40728.459675383	3
bin	43183.917163216	6
bin	45639.374651049	1
bin	48094.832138882	11
bin	50550.289626715	9
bin	53005.747114548	2
bin	55461.204602381	351
scalar scenarioPRJP1.node[6].lo0.lo 	droppedPkBitError:count 	0
attr interpolationmode  none
attr source  dropPkBitError
attr title  "packets dropped/bit error, count"
scalar scenarioPRJP1.node[6].lo0.lo 	droppedPkBitError:sum(packetBytes) 	0
attr interpolationmode  none
attr source  dropPkBitError
attr title  "packets dropped/bit error, sum(packetBytes)"
scalar scenarioPRJP1.node[6].lo0.lo 	rcvdPkFromHL:count 	0
attr interpolationmode  none
attr source  packetReceivedFromUpper
attr title  "packets received from higher layer, count"
scalar scenarioPRJP1.node[6].lo0.lo 	rcvdPkFromHL:sum(packetBytes) 	0
attr interpolationmode  none
attr source  packetReceivedFromUpper
attr title  "packets received from higher layer, sum(packetBytes)"
scalar scenarioPRJP1.node[6].lo0.lo 	passedUpPk:count 	0
attr interpolationmode  none
attr source  packetSentToUpper
attr title  "packets passed to higher layer, count"
scalar scenarioPRJP1.node[6].lo0.lo 	passedUpPk:sum(packetBytes) 	0
attr interpolationmode  none
attr source  packetSentToUpper
attr title  "packets passed to higher layer, sum(packetBytes)"
scalar scenarioPRJP1.node[2].app 	"Total sent" 	2607
scalar scenarioPRJP1.node[2].app 	"Total received" 	331
scalar scenarioPRJP1.node[2].app 	"Total deleted" 	48
scalar scenarioPRJP1.node[2].app 	dropPk:count 	48
attr interpolationmode  none
attr source  dropPk
attr title  "packets dropped, count"
scalar scenarioPRJP1.node[2].app 	dropPk:sum(packetBytes) 	24576
attr interpolationmode  none
attr source  dropPk
attr title  "packets dropped, sum(packetBytes)"
scalar scenarioPRJP1.node[2].app 	outOfOrderPk:count 	0
attr interpolationmode  none
attr source  outOfOrderPk
attr title  "packets received out of order, count"
scalar scenarioPRJP1.node[2].app 	outOfOrderPk:sum(packetBytes) 	0
attr interpolationmode  none
attr source  outOfOrderPk
attr title  "packets received out of order, sum(packetBytes)"
scalar scenarioPRJP1.node[2].app 	rcvdPk:count 	331
attr interpolationmode  none
attr source  rcvdPk
attr title  "packets received, count"
scalar scenarioPRJP1.node[2].app 	rcvdPk:sum(packetBytes) 	169472
attr interpolationmode  none
attr source  rcvdPk
attr title  "packets received, sum(packetBytes)"
statistic scenarioPRJP1.node[2].app 	endToEndDelay:histogram
field count 331
field mean 3.4319083455099
field stddev 5.9311654112185
field sum 1135.9616623638
field sqrsum 15507.494943873
field min 0.000945011007
field max 19.303132553657
attr interpolationmode  none
attr source  messageAge(rcvdPk)
attr title  "delay, histogram"
attr unit  s
bin	-INF	0
bin	-9.637810570725	0
bin	-8.3526431598274	0
bin	-7.0674757489298	0
bin	-5.7823083380322	0
bin	-4.4971409271346	0
bin	-3.211973516237	0
bin	-1.9268061053394	0
bin	-0.6416386944418	221
bin	0.6435287164558	10
bin	1.9286961273534	9
bin	3.213863538251	6
bin	4.4990309491486	7
bin	5.7841983600462	3
bin	7.0693657709438	9
bin	8.3545331818414	9
bin	9.639700592739	4
bin	10.924868003637	4
bin	12.210035414534	8
bin	13.495202825432	7
bin	14.780370236329	9
bin	16.065537647227	9
bin	17.350705058125	11
bin	18.635872469022	5
bin	19.92103987992	0
bin	21.206207290817	0
bin	22.491374701715	0
bin	23.776542112613	0
bin	25.06170952351	0
bin	26.346876934408	0
bin	27.632044345305	0
bin	28.917211756203	0
scalar scenarioPRJP1.node[2].app 	sentPk:count 	2607
attr interpolationmode  none
attr source  sentPk
attr title  "packets sent, count"
scalar scenarioPRJP1.node[2].app 	sentPk:sum(packetBytes) 	1334784
attr interpolationmode  none
attr source  sentPk
attr title  "packets sent, sum(packetBytes)"
scalar scenarioPRJP1.node[2].udp 	droppedPkBadChecksum:count 	0
attr interpolationmode  none
attr title  "packets dropped (checksum error), count"
scalar scenarioPRJP1.node[2].udp 	droppedPkWrongPort:count 	0
attr interpolationmode  none
attr title  "packets dropped (wrong port), count"
scalar scenarioPRJP1.node[2].udp 	passedUpPk:count 	379
attr interpolationmode  none
attr title  "packets passed up, count"
scalar scenarioPRJP1.node[2].udp 	rcvdPk:count 	379
attr interpolationmode  none
attr source  rcvdPk
attr title  "packets received, count"
scalar scenarioPRJP1.node[2].udp 	rcvdPk:sum(packetBytes) 	197080
attr interpolationmode  none
attr source  rcvdPk
attr title  "packets received, sum(packetBytes)"
scalar scenarioPRJP1.node[2].udp 	sentPk:count 	2607
attr interpolationmode  none
attr source  sentPk
attr title  "packets sent, count"
scalar scenarioPRJP1.node[2].udp 	sentPk:sum(packetBytes) 	1355640
attr interpolationmode  none
attr source  sentPk
attr title  "packets sent, sum(packetBytes)"
scalar scenarioPRJP1.node[2].networkLayer.arp 	failedARPResolution:count 	0
attr title  "ARP failed resolutions, count"
scalar scenarioPRJP1.node[2].networkLayer.arp 	completedARPResolution:count 	23
attr title  "ARP completed resolutions, count"
scalar scenarioPRJP1.node[2].networkLayer.arp 	initiatedARPResolution:count 	13
attr title  "ARP initiated resolutions, count"
scalar scenarioPRJP1.node[2].networkLayer.arp 	sentReply:count 	6
attr title  "ARP replies sent, count"
scalar scenarioPRJP1.node[2].networkLayer.arp 	sentReq:count 	15
attr title  "ARP request sent, count"
scalar scenarioPRJP1.node[2].mobility 	startTime 	0.1
scalar scenarioPRJP1.node[2].mobility 	totalTime 	949.9
scalar scenarioPRJP1.node[2].mobility 	stopTime 	950
scalar scenarioPRJP1.node[2].mobility 	minSpeed 	2.4758316306343e-13
scalar scenarioPRJP1.node[2].mobility 	maxSpeed 	18.522798439434
scalar scenarioPRJP1.node[2].mobility 	totalDistance 	9298.8580310363
scalar scenarioPRJP1.node[2].mobility 	totalCO2Emission 	2615.5901387796
scalar scenarioPRJP1.node[2].wlan.mgmt 	dataQueueLen:max 	26
attr interpolationmode  sample-hold
attr title  "data queue length, max"
scalar scenarioPRJP1.node[2].wlan.mgmt 	dataQueueLen:timeavg 	0
attr interpolationmode  sample-hold
attr title  "data queue length, timeavg"
scalar scenarioPRJP1.node[2].wlan.mgmt 	dropPkByQueue:count 	0
attr interpolationmode  none
attr source  dropPkByQueue
attr title  "packets dropped by queue, count"
scalar scenarioPRJP1.node[2].wlan.mgmt 	dropPkByQueue:sum(packetBytes) 	0
attr interpolationmode  none
attr source  dropPkByQueue
attr title  "packets dropped by queue, sum(packetBytes)"
scalar scenarioPRJP1.node[2].wlan.mac 	"number of received packets" 	1910
scalar scenarioPRJP1.node[2].wlan.mac 	"number of collisions" 	108
scalar scenarioPRJP1.node[2].wlan.mac 	"number of internal collisions" 	0
scalar scenarioPRJP1.node[2].wlan.mac 	"number of retry for AC 0" 	1659
scalar scenarioPRJP1.node[2].wlan.mac 	"number of retry for AC 1" 	0
scalar scenarioPRJP1.node[2].wlan.mac 	"number of retry for AC 2" 	0
scalar scenarioPRJP1.node[2].wlan.mac 	"number of retry for AC 3" 	0
scalar scenarioPRJP1.node[2].wlan.mac 	"sent and received bits" 	2558240
scalar scenarioPRJP1.node[2].wlan.mac 	"sent packet within AC 0" 	267
scalar scenarioPRJP1.node[2].wlan.mac 	"sent packet within AC 1" 	0
scalar scenarioPRJP1.node[2].wlan.mac 	"sent packet within AC 2" 	0
scalar scenarioPRJP1.node[2].wlan.mac 	"sent packet within AC 3" 	0
scalar scenarioPRJP1.node[2].wlan.mac 	"sent in TXOP " 	0
scalar scenarioPRJP1.node[2].wlan.mac 	"sentWithoutRetry AC 0" 	264
scalar scenarioPRJP1.node[2].wlan.mac 	"sentWithoutRetry AC 1" 	0
scalar scenarioPRJP1.node[2].wlan.mac 	"sentWithoutRetry AC 2" 	0
scalar scenarioPRJP1.node[2].wlan.mac 	"sentWithoutRetry AC 3" 	0
scalar scenarioPRJP1.node[2].wlan.mac 	"numGivenUp AC 0" 	276
scalar scenarioPRJP1.node[2].wlan.mac 	"numGivenUp AC 1" 	0
scalar scenarioPRJP1.node[2].wlan.mac 	"numGivenUp AC 2" 	0
scalar scenarioPRJP1.node[2].wlan.mac 	"numGivenUp AC 3" 	0
scalar scenarioPRJP1.node[2].wlan.mac 	"numDropped AC 0" 	0
scalar scenarioPRJP1.node[2].wlan.mac 	"numDropped AC 1" 	0
scalar scenarioPRJP1.node[2].wlan.mac 	"numDropped AC 2" 	0
scalar scenarioPRJP1.node[2].wlan.mac 	"numDropped AC 3" 	0
scalar scenarioPRJP1.node[2].wlan.mac 	rcvdPkFromLL:count 	7738
attr interpolationmode  none
attr source  packetReceivedFromLower
attr title  "packets received from lower layer, count"
scalar scenarioPRJP1.node[2].wlan.mac 	rcvdPkFromLL:sum(packetBytes) 	1834119
attr interpolationmode  none
attr source  packetReceivedFromLower
attr title  "packets received from lower layer, sum(packetBytes)"
scalar scenarioPRJP1.node[2].wlan.mac 	sentDownPk:count 	5945
attr interpolationmode  none
attr source  packetSentToLower
attr title  "packets sent to lower layer, count"
scalar scenarioPRJP1.node[2].wlan.mac 	sentDownPk:sum(packetBytes) 	1429538
attr interpolationmode  none
attr source  packetSentToLower
attr title  "packets sent to lower layer, sum(packetBytes)"
scalar scenarioPRJP1.node[2].wlan.mac 	rcvdPkFromHL:count 	2376
attr interpolationmode  none
attr source  packetReceivedFromUpper
attr title  "packets received from higher layer, count"
scalar scenarioPRJP1.node[2].wlan.mac 	rcvdPkFromHL:sum(packetBytes) 	474250
attr interpolationmode  none
attr source  packetReceivedFromUpper
attr title  "packets received from higher layer, sum(packetBytes)"
scalar scenarioPRJP1.node[2].wlan.mac 	passedUpPk:count 	2225
attr interpolationmode  none
attr source  packetSentToUpper
attr title  "packets passed to higher layer, count"
scalar scenarioPRJP1.node[2].wlan.mac 	passedUpPk:sum(packetBytes) 	450779
attr interpolationmode  none
attr source  packetSentToUpper
attr title  "packets passed to higher layer, sum(packetBytes)"
statistic scenarioPRJP1.node[2].wlan.radio 	radioChannel:histogram
field count 1
field mean 3
field stddev -nan
field sum 3
field sqrsum 9
field min 3
field max 3
attr interpolationmode  sample-hold
attr source  radioChannelChanged
attr title  "Radio channel, histogram"
bin	-INF	0
bin	2	0
bin	3	1
bin	4	0
scalar scenarioPRJP1.node[2].wlan.radio 	transmissionState:count 	23780
attr interpolationmode  sample-hold
attr source  transmissionStateChanged
attr title  "Radio transmission state, count"
scalar scenarioPRJP1.node[2].wlan.radio 	receptionState:count 	27390
attr interpolationmode  sample-hold
attr source  receptionStateChanged
attr title  "Radio reception state, count"
scalar scenarioPRJP1.node[2].wlan.radio 	radioMode:count 	11892
attr interpolationmode  sample-hold
attr source  radioModeChanged
attr title  "Radio mode, count"
statistic scenarioPRJP1.node[2].wlan.radio 	symbolErrorRate:histogram
field count 0
field mean -nan
field stddev -nan
field sum 0
field sqrsum 0
field min -nan
field max -nan
attr source  symbolErrorRate
attr title  "Symbol error rate, histogram"
bin	-INF	0
bin	-0.5	0
bin	-0.46666666666667	0
bin	-0.43333333333333	0
bin	-0.4	0
bin	-0.36666666666667	0
bin	-0.33333333333333	0
bin	-0.3	0
bin	-0.26666666666667	0
bin	-0.23333333333333	0
bin	-0.2	0
bin	-0.16666666666667	0
bin	-0.13333333333333	0
bin	-0.1	0
bin	-0.066666666666667	0
bin	-0.033333333333333	0
bin	0	0
bin	0.033333333333333	0
bin	0.066666666666667	0
bin	0.1	0
bin	0.13333333333333	0
bin	0.16666666666667	0
bin	0.2	0
bin	0.23333333333333	0
bin	0.26666666666667	0
bin	0.3	0
bin	0.33333333333333	0
bin	0.36666666666667	0
bin	0.4	0
bin	0.43333333333333	0
bin	0.46666666666667	0
bin	0.5	0
statistic scenarioPRJP1.node[2].wlan.radio 	bitErrorRate:histogram
field count 0
field mean -nan
field stddev -nan
field sum 0
field sqrsum 0
field min -nan
field max -nan
attr source  bitErrorRate
attr title  "Bit error rate, histogram"
bin	-INF	0
bin	-0.5	0
bin	-0.46666666666667	0
bin	-0.43333333333333	0
bin	-0.4	0
bin	-0.36666666666667	0
bin	-0.33333333333333	0
bin	-0.3	0
bin	-0.26666666666667	0
bin	-0.23333333333333	0
bin	-0.2	0
bin	-0.16666666666667	0
bin	-0.13333333333333	0
bin	-0.1	0
bin	-0.066666666666667	0
bin	-0.033333333333333	0
bin	0	0
bin	0.033333333333333	0
bin	0.066666666666667	0
bin	0.1	0
bin	0.13333333333333	0
bin	0.16666666666667	0
bin	0.2	0
bin	0.23333333333333	0
bin	0.26666666666667	0
bin	0.3	0
bin	0.33333333333333	0
bin	0.36666666666667	0
bin	0.4	0
bin	0.43333333333333	0
bin	0.46666666666667	0
bin	0.5	0
statistic scenarioPRJP1.node[2].wlan.radio 	packetErrorRate:histogram
field count 7738
field mean 0.013721060915011
field stddev 0.11566549989211
field sum 106.17356936036
field sqrsum 104.96632936653
field min 0
field max 1
attr source  packetErrorRate
attr title  "Packet error rate, histogram"
bin	-INF	0
bin	-0.5	0
bin	-0.46666666666667	0
bin	-0.43333333333333	0
bin	-0.4	0
bin	-0.36666666666667	0
bin	-0.33333333333333	0
bin	-0.3	0
bin	-0.26666666666667	0
bin	-0.23333333333333	0
bin	-0.2	0
bin	-0.16666666666667	0
bin	-0.13333333333333	0
bin	-0.1	0
bin	-0.066666666666667	0
bin	-0.033333333333333	0
bin	0	7621
bin	0.033333333333333	7
bin	0.066666666666667	1
bin	0.1	2
bin	0.13333333333333	0
bin	0.16666666666667	1
bin	0.2	0
bin	0.23333333333333	0
bin	0.26666666666667	0
bin	0.3	0
bin	0.33333333333333	0
bin	0.36666666666667	0
bin	0.4	0
bin	0.43333333333333	0
bin	0.46666666666667	0
bin	0.5	106
statistic scenarioPRJP1.node[2].wlan.radio 	minSNIR:histogram
field count 7738
field mean 34517.367340558
field stddev 135798.78617654
field sum 267095388.48124
field sqrsum 1.5189984763935e+14
field min 0.022985598803785
field max 1408300.2407224
attr source  minSNIR
attr title  "Min SNIR, histogram"
bin	-INF	0
bin	-57478.109574347	0
bin	-49806.322158603	0
bin	-42134.534742859	0
bin	-34462.747327114	0
bin	-26790.95991137	0
bin	-19119.172495626	0
bin	-11447.385079882	0
bin	-3775.5976641379	6199
bin	3896.1897516062	253
bin	11567.97716735	149
bin	19239.764583095	427
bin	26911.551998839	53
bin	34583.339414583	33
bin	42255.126830327	20
bin	49926.914246071	24
bin	57598.701661815	11
bin	65270.489077559	17
bin	72942.276493303	15
bin	80614.063909048	15
bin	88285.851324792	14
bin	95957.638740536	1
bin	103629.42615628	7
bin	111301.21357202	8
bin	118973.00098777	5
bin	126644.78840351	2
bin	134316.57581926	6
bin	141988.363235	3
bin	149660.15065074	7
bin	157331.93806649	4
bin	165003.72548223	6
bin	172675.51289798	459
scalar scenarioPRJP1.node[2].lo0.lo 	droppedPkBitError:count 	0
attr interpolationmode  none
attr source  dropPkBitError
attr title  "packets dropped/bit error, count"
scalar scenarioPRJP1.node[2].lo0.lo 	droppedPkBitError:sum(packetBytes) 	0
attr interpolationmode  none
attr source  dropPkBitError
attr title  "packets dropped/bit error, sum(packetBytes)"
scalar scenarioPRJP1.node[2].lo0.lo 	rcvdPkFromHL:count 	0
attr interpolationmode  none
attr source  packetReceivedFromUpper
attr title  "packets received from higher layer, count"
scalar scenarioPRJP1.node[2].lo0.lo 	rcvdPkFromHL:sum(packetBytes) 	0
attr interpolationmode  none
attr source  packetReceivedFromUpper
attr title  "packets received from higher layer, sum(packetBytes)"
scalar scenarioPRJP1.node[2].lo0.lo 	passedUpPk:count 	0
attr interpolationmode  none
attr source  packetSentToUpper
attr title  "packets passed to higher layer, count"
scalar scenarioPRJP1.node[2].lo0.lo 	passedUpPk:sum(packetBytes) 	0
attr interpolationmode  none
attr source  packetSentToUpper
attr title  "packets passed to higher layer, sum(packetBytes)"
scalar scenarioPRJP1.node[7].app 	"Total sent" 	2618
scalar scenarioPRJP1.node[7].app 	"Total received" 	225
scalar scenarioPRJP1.node[7].app 	"Total deleted" 	9
scalar scenarioPRJP1.node[7].app 	dropPk:count 	9
attr interpolationmode  none
attr source  dropPk
attr title  "packets dropped, count"
scalar scenarioPRJP1.node[7].app 	dropPk:sum(packetBytes) 	4608
attr interpolationmode  none
attr source  dropPk
attr title  "packets dropped, sum(packetBytes)"
scalar scenarioPRJP1.node[7].app 	outOfOrderPk:count 	0
attr interpolationmode  none
attr source  outOfOrderPk
attr title  "packets received out of order, count"
scalar scenarioPRJP1.node[7].app 	outOfOrderPk:sum(packetBytes) 	0
attr interpolationmode  none
attr source  outOfOrderPk
attr title  "packets received out of order, sum(packetBytes)"
scalar scenarioPRJP1.node[7].app 	rcvdPk:count 	225
attr interpolationmode  none
attr source  rcvdPk
attr title  "packets received, count"
scalar scenarioPRJP1.node[7].app 	rcvdPk:sum(packetBytes) 	115200
attr interpolationmode  none
attr source  rcvdPk
attr title  "packets received, sum(packetBytes)"
statistic scenarioPRJP1.node[7].app 	endToEndDelay:histogram
field count 225
field mean 2.4072834315844
field stddev 4.3921510517298
field sum 541.63877210649
field sqrsum 5625.059994907
field min 0.000945047398
field max 19.304641662765
attr interpolationmode  none
attr source  messageAge(rcvdPk)
attr title  "delay, histogram"
attr unit  s
bin	-INF	0
bin	-9.650903228151	0
bin	-8.3639901218881	0
bin	-7.0770770156251	0
bin	-5.7901639093622	0
bin	-4.5032508030993	0
bin	-3.2163376968363	0
bin	-1.9294245905734	0
bin	-0.64251148431047	155
bin	0.64440162195247	4
bin	1.9313147282154	11
bin	3.2182278344783	9
bin	4.5051409407413	4
bin	5.7920540470042	11
bin	7.0789671532671	4
bin	8.3658802595301	1
bin	9.652793365793	6
bin	10.939706472056	7
bin	12.226619578319	4
bin	13.513532684582	4
bin	14.800445790845	2
bin	16.087358897108	1
bin	17.374272003371	1
bin	18.661185109634	1
bin	19.948098215896	0
bin	21.235011322159	0
bin	22.521924428422	0
bin	23.808837534685	0
bin	25.095750640948	0
bin	26.382663747211	0
bin	27.669576853474	0
bin	28.956489959737	0
scalar scenarioPRJP1.node[7].app 	sentPk:count 	2618
attr interpolationmode  none
attr source  sentPk
attr title  "packets sent, count"
scalar scenarioPRJP1.node[7].app 	sentPk:sum(packetBytes) 	1340416
attr interpolationmode  none
attr source  sentPk
attr title  "packets sent, sum(packetBytes)"
scalar scenarioPRJP1.node[7].udp 	droppedPkBadChecksum:count 	0
attr interpolationmode  none
attr title  "packets dropped (checksum error), count"
scalar scenarioPRJP1.node[7].udp 	droppedPkWrongPort:count 	0
attr interpolationmode  none
attr title  "packets dropped (wrong port), count"
scalar scenarioPRJP1.node[7].udp 	passedUpPk:count 	234
attr interpolationmode  none
attr title  "packets passed up, count"
scalar scenarioPRJP1.node[7].udp 	rcvdPk:count 	234
attr interpolationmode  none
attr source  rcvdPk
attr title  "packets received, count"
scalar scenarioPRJP1.node[7].udp 	rcvdPk:sum(packetBytes) 	121680
attr interpolationmode  none
attr source  rcvdPk
attr title  "packets received, sum(packetBytes)"
scalar scenarioPRJP1.node[7].udp 	sentPk:count 	2618
attr interpolationmode  none
attr source  sentPk
attr title  "packets sent, count"
scalar scenarioPRJP1.node[7].udp 	sentPk:sum(packetBytes) 	1361360
attr interpolationmode  none
attr source  sentPk
attr title  "packets sent, sum(packetBytes)"
scalar scenarioPRJP1.node[7].networkLayer.arp 	failedARPResolution:count 	0
attr title  "ARP failed resolutions, count"
scalar scenarioPRJP1.node[7].networkLayer.arp 	completedARPResolution:count 	19
attr title  "ARP completed resolutions, count"
scalar scenarioPRJP1.node[7].networkLayer.arp 	initiatedARPResolution:count 	4
attr title  "ARP initiated resolutions, count"
scalar scenarioPRJP1.node[7].networkLayer.arp 	sentReply:count 	9
attr title  "ARP replies sent, count"
scalar scenarioPRJP1.node[7].networkLayer.arp 	sentReq:count 	4
attr title  "ARP request sent, count"
scalar scenarioPRJP1.node[7].mobility 	startTime 	2.5
scalar scenarioPRJP1.node[7].mobility 	totalTime 	947.5
scalar scenarioPRJP1.node[7].mobility 	stopTime 	950
scalar scenarioPRJP1.node[7].mobility 	minSpeed 	2.4754810441532e-13
scalar scenarioPRJP1.node[7].mobility 	maxSpeed 	17.770852102423
scalar scenarioPRJP1.node[7].mobility 	totalDistance 	10363.961992463
scalar scenarioPRJP1.node[7].mobility 	totalCO2Emission 	2616.8613556999
scalar scenarioPRJP1.node[7].wlan.mgmt 	dataQueueLen:max 	0
attr interpolationmode  sample-hold
attr title  "data queue length, max"
scalar scenarioPRJP1.node[7].wlan.mgmt 	dataQueueLen:timeavg 	0
attr interpolationmode  sample-hold
attr title  "data queue length, timeavg"
scalar scenarioPRJP1.node[7].wlan.mgmt 	dropPkByQueue:count 	0
attr interpolationmode  none
attr source  dropPkByQueue
attr title  "packets dropped by queue, count"
scalar scenarioPRJP1.node[7].wlan.mgmt 	dropPkByQueue:sum(packetBytes) 	0
attr interpolationmode  none
attr source  dropPkByQueue
attr title  "packets dropped by queue, sum(packetBytes)"
scalar scenarioPRJP1.node[7].wlan.mac 	"number of received packets" 	1289
scalar scenarioPRJP1.node[7].wlan.mac 	"number of collisions" 	108
scalar scenarioPRJP1.node[7].wlan.mac 	"number of internal collisions" 	0
scalar scenarioPRJP1.node[7].wlan.mac 	"number of retry for AC 0" 	1422
scalar scenarioPRJP1.node[7].wlan.mac 	"number of retry for AC 1" 	0
scalar scenarioPRJP1.node[7].wlan.mac 	"number of retry for AC 2" 	0
scalar scenarioPRJP1.node[7].wlan.mac 	"number of retry for AC 3" 	0
scalar scenarioPRJP1.node[7].wlan.mac 	"sent and received bits" 	1824944
scalar scenarioPRJP1.node[7].wlan.mac 	"sent packet within AC 0" 	142
scalar scenarioPRJP1.node[7].wlan.mac 	"sent packet within AC 1" 	0
scalar scenarioPRJP1.node[7].wlan.mac 	"sent packet within AC 2" 	0
scalar scenarioPRJP1.node[7].wlan.mac 	"sent packet within AC 3" 	0
scalar scenarioPRJP1.node[7].wlan.mac 	"sent in TXOP " 	0
scalar scenarioPRJP1.node[7].wlan.mac 	"sentWithoutRetry AC 0" 	142
scalar scenarioPRJP1.node[7].wlan.mac 	"sentWithoutRetry AC 1" 	0
scalar scenarioPRJP1.node[7].wlan.mac 	"sentWithoutRetry AC 2" 	0
scalar scenarioPRJP1.node[7].wlan.mac 	"sentWithoutRetry AC 3" 	0
scalar scenarioPRJP1.node[7].wlan.mac 	"numGivenUp AC 0" 	237
scalar scenarioPRJP1.node[7].wlan.mac 	"numGivenUp AC 1" 	0
scalar scenarioPRJP1.node[7].wlan.mac 	"numGivenUp AC 2" 	0
scalar scenarioPRJP1.node[7].wlan.mac 	"numGivenUp AC 3" 	0
scalar scenarioPRJP1.node[7].wlan.mac 	"numDropped AC 0" 	0
scalar scenarioPRJP1.node[7].wlan.mac 	"numDropped AC 1" 	0
scalar scenarioPRJP1.node[7].wlan.mac 	"numDropped AC 2" 	0
scalar scenarioPRJP1.node[7].wlan.mac 	"numDropped AC 3" 	0
scalar scenarioPRJP1.node[7].wlan.mac 	rcvdPkFromLL:count 	6037
attr interpolationmode  none
attr source  packetReceivedFromLower
attr title  "packets received from lower layer, count"
scalar scenarioPRJP1.node[7].wlan.mac 	rcvdPkFromLL:sum(packetBytes) 	1617584
attr interpolationmode  none
attr source  packetReceivedFromLower
attr title  "packets received from lower layer, sum(packetBytes)"
scalar scenarioPRJP1.node[7].wlan.mac 	sentDownPk:count 	4754
attr interpolationmode  none
attr source  packetSentToLower
attr title  "packets sent to lower layer, count"
scalar scenarioPRJP1.node[7].wlan.mac 	sentDownPk:sum(packetBytes) 	1166230
attr interpolationmode  none
attr source  packetSentToLower
attr title  "packets sent to lower layer, sum(packetBytes)"
scalar scenarioPRJP1.node[7].wlan.mac 	rcvdPkFromHL:count 	2043
attr interpolationmode  none
attr source  packetReceivedFromUpper
attr title  "packets received from higher layer, count"
scalar scenarioPRJP1.node[7].wlan.mac 	rcvdPkFromHL:sum(packetBytes) 	359556
attr interpolationmode  none
attr source  packetReceivedFromUpper
attr title  "packets received from higher layer, sum(packetBytes)"
scalar scenarioPRJP1.node[7].wlan.mac 	passedUpPk:count 	1365
attr interpolationmode  none
attr source  packetSentToUpper
attr title  "packets passed to higher layer, count"
scalar scenarioPRJP1.node[7].wlan.mac 	passedUpPk:sum(packetBytes) 	277925
attr interpolationmode  none
attr source  packetSentToUpper
attr title  "packets passed to higher layer, sum(packetBytes)"
statistic scenarioPRJP1.node[7].wlan.radio 	radioChannel:histogram
field count 1
field mean 3
field stddev -nan
field sum 3
field sqrsum 9
field min 3
field max 3
attr interpolationmode  sample-hold
attr source  radioChannelChanged
attr title  "Radio channel, histogram"
bin	-INF	0
bin	2	0
bin	3	1
bin	4	0
scalar scenarioPRJP1.node[7].wlan.radio 	transmissionState:count 	19016
[...]
scalar scenarioPRJP1.node[4].wlan.mac 	passedUpPk:count 	1713
attr interpolationmode  none
attr source  packetSentToUpper
attr title  "packets passed to higher layer, count"
scalar scenarioPRJP1.node[4].wlan.mac 	passedUpPk:sum(packetBytes) 	348189
attr interpolationmode  none
attr source  packetSentToUpper
attr title  "packets passed to higher layer, sum(packetBytes)"
statistic scenarioPRJP1.node[4].wlan.radio 	radioChannel:histogram
field count 1
field mean 3
field stddev -nan
field sum 3
field sqrsum 9
field min 3
field max 3
attr interpolationmode  sample-hold
attr source  radioChannelChanged
attr title  "Radio channel, histogram"
bin	-INF	0
bin	2	0
bin	3	1
bin	4	0
scalar scenarioPRJP1.node[4].wlan.radio 	transmissionState:count 	19080
attr interpolationmode  sample-hold
attr source  transmissionStateChanged
attr title  "Radio transmission state, count"
scalar scenarioPRJP1.node[4].wlan.radio 	receptionState:count 	20501
attr interpolationmode  sample-hold
attr source  receptionStateChanged
attr title  "Radio reception state, count"
scalar scenarioPRJP1.node[4].wlan.radio 	radioMode:count 	9542
attr interpolationmode  sample-hold
attr source  radioModeChanged
attr title  "Radio mode, count"
statistic scenarioPRJP1.node[4].wlan.radio 	symbolErrorRate:histogram
field count 0
field mean -nan
field stddev -nan
field sum 0
field sqrsum 0
field min -nan
field max -nan
attr source  symbolErrorRate
attr title  "Symbol error rate, histogram"
bin	-INF	0
bin	-0.5	0
bin	-0.46666666666667	0
bin	-0.43333333333333	0
bin	-0.4	0
bin	-0.36666666666667	0
bin	-0.33333333333333	0
bin	-0.3	0
bin	-0.26666666666667	0
bin	-0.23333333333333	0
bin	-0.2	0
bin	-0.16666666666667	0
bin	-0.13333333333333	0
bin	-0.1	0
bin	-0.066666666666667	0
bin	-0.033333333333333	0
bin	0	0
bin	0.033333333333333	0
bin	0.066666666666667	0
bin	0.1	0
bin	0.13333333333333	0
bin	0.16666666666667	0
bin	0.2	0
bin	0.23333333333333	0
bin	0.26666666666667	0
bin	0.3	0
bin	0.33333333333333	0
bin	0.36666666666667	0
bin	0.4	0
bin	0.43333333333333	0
bin	0.46666666666667	0
bin	0.5	0
statistic scenarioPRJP1.node[4].wlan.radio 	bitErrorRate:histogram
field count 0
field mean -nan
field stddev -nan
field sum 0
field sqrsum 0
field min -nan
field max -nan
attr source  bitErrorRate
attr title  "Bit error rate, histogram"
bin	-INF	0
bin	-0.5	0
bin	-0.46666666666667	0
bin	-0.43333333333333	0
bin	-0.4	0
bin	-0.36666666666667	0
bin	-0.33333333333333	0
bin	-0.3	0
bin	-0.26666666666667	0
bin	-0.23333333333333	0
bin	-0.2	0
bin	-0.16666666666667	0
bin	-0.13333333333333	0
bin	-0.1	0
bin	-0.066666666666667	0
bin	-0.033333333333333	0
bin	0	0
bin	0.033333333333333	0
bin	0.066666666666667	0
bin	0.1	0
bin	0.13333333333333	0
bin	0.16666666666667	0
bin	0.2	0
bin	0.23333333333333	0
bin	0.26666666666667	0
bin	0.3	0
bin	0.33333333333333	0
bin	0.36666666666667	0
bin	0.4	0
bin	0.43333333333333	0
bin	0.46666666666667	0
bin	0.5	0
statistic scenarioPRJP1.node[4].wlan.radio 	packetErrorRate:histogram
field count 5471
field mean 0.0090488972575475
field stddev 0.093848212880357
field sum 49.506516896043
field sqrsum 48.624933607749
field min 0
field max 1
attr source  packetErrorRate
attr title  "Packet error rate, histogram"
bin	-INF	57
bin	-7.2928330041577e-12	0
bin	-6.32045527027e-12	0
bin	-5.3480775363823e-12	0
bin	-4.3756998024946e-12	0
bin	-3.4033220686069e-12	0
bin	-2.4309443347192e-12	0
bin	-1.4585666008315e-12	0
bin	-4.8618886694385e-13	5393
bin	4.8618886694385e-13	0
bin	1.4585666008315e-12	0
bin	2.4309443347192e-12	0
bin	3.4033220686069e-12	0
bin	4.3756998024946e-12	0
bin	5.3480775363823e-12	0
bin	6.32045527027e-12	0
bin	7.2928330041577e-12	0
bin	8.2652107380454e-12	0
bin	9.2375884719331e-12	0
bin	1.0209966205821e-11	0
bin	1.1182343939709e-11	0
bin	1.2154721673596e-11	0
bin	1.3127099407484e-11	0
bin	1.4099477141372e-11	1
bin	1.5071854875259e-11	0
bin	1.6044232609147e-11	0
bin	1.7016610343035e-11	0
bin	1.7988988076922e-11	0
bin	1.896136581081e-11	0
bin	1.9933743544698e-11	0
bin	2.0906121278585e-11	0
bin	2.1878499012473e-11	20
statistic scenarioPRJP1.node[4].wlan.radio 	minSNIR:histogram
field count 5471
field mean 22992.428052383
field stddev 126620.38525347
field sum 125791573.87459
field sqrsum 90591242842610
field min 0.075597290359031
field max 4501124.2548589
attr source  minSNIR
attr title  "Min SNIR, histogram"
bin	-INF	0
bin	-53943.175920337	0
bin	-46749.988881326	0
bin	-39556.801842315	0
bin	-32363.614803303	0
bin	-25170.427764292	0
bin	-17977.240725281	0
bin	-10784.05368627	0
bin	-3590.8666472586	4500
bin	3602.3203917526	212
bin	10795.507430764	227
bin	17988.694469775	152
bin	25181.881508786	39
bin	32375.068547797	53
bin	39568.255586809	29
bin	46761.44262582	16
bin	53954.629664831	17
bin	61147.816703842	12
bin	68341.003742854	7
bin	75534.190781865	3
bin	82727.377820876	6
bin	89920.564859887	6
bin	97113.751898898	2
bin	104306.93893791	5
bin	111500.12597692	2
bin	118693.31301593	7
bin	125886.50005494	1
bin	133079.68709395	9
bin	140272.87413297	1
bin	147466.06117198	2
bin	154659.24821099	3
bin	161852.43525	160
scalar scenarioPRJP1.node[4].lo0.lo 	droppedPkBitError:count 	0
attr interpolationmode  none
attr source  dropPkBitError
attr title  "packets dropped/bit error, count"
scalar scenarioPRJP1.node[4].lo0.lo 	droppedPkBitError:sum(packetBytes) 	0
attr interpolationmode  none
attr source  dropPkBitError
attr title  "packets dropped/bit error, sum(packetBytes)"
scalar scenarioPRJP1.node[4].lo0.lo 	rcvdPkFromHL:count 	0
attr interpolationmode  none
attr source  packetReceivedFromUpper
attr title  "packets received from higher layer, count"
scalar scenarioPRJP1.node[4].lo0.lo 	rcvdPkFromHL:sum(packetBytes) 	0
attr interpolationmode  none
attr source  packetReceivedFromUpper
attr title  "packets received from higher layer, sum(packetBytes)"
scalar scenarioPRJP1.node[4].lo0.lo 	passedUpPk:count 	0
attr interpolationmode  none
attr source  packetSentToUpper
attr title  "packets passed to higher layer, count"
scalar scenarioPRJP1.node[4].lo0.lo 	passedUpPk:sum(packetBytes) 	0
attr interpolationmode  none
attr source  packetSentToUpper
attr title  "packets passed to higher layer, sum(packetBytes)"
scalar scenarioPRJP1.node[9].app 	"Total sent" 	2609
scalar scenarioPRJP1.node[9].app 	"Total received" 	249
scalar scenarioPRJP1.node[9].app 	"Total deleted" 	39
scalar scenarioPRJP1.node[9].app 	dropPk:count 	39
attr interpolationmode  none
attr source  dropPk
attr title  "packets dropped, count"
scalar scenarioPRJP1.node[9].app 	dropPk:sum(packetBytes) 	19968
attr interpolationmode  none
attr source  dropPk
attr title  "packets dropped, sum(packetBytes)"
scalar scenarioPRJP1.node[9].app 	outOfOrderPk:count 	0
attr interpolationmode  none
attr source  outOfOrderPk
attr title  "packets received out of order, count"
scalar scenarioPRJP1.node[9].app 	outOfOrderPk:sum(packetBytes) 	0
attr interpolationmode  none
attr source  outOfOrderPk
attr title  "packets received out of order, sum(packetBytes)"
scalar scenarioPRJP1.node[9].app 	rcvdPk:count 	249
attr interpolationmode  none
attr source  rcvdPk
attr title  "packets received, count"
scalar scenarioPRJP1.node[9].app 	rcvdPk:sum(packetBytes) 	127488
attr interpolationmode  none
attr source  rcvdPk
attr title  "packets received, sum(packetBytes)"
statistic scenarioPRJP1.node[9].app 	endToEndDelay:histogram
field count 249
field mean 3.7525155444173
field stddev 5.8021867645266
field sum 934.3763705599
field sqrsum 11855.273924973
field min 0.000945061376
field max 19.609816230784
attr interpolationmode  none
attr source  messageAge(rcvdPk)
attr title  "delay, histogram"
attr unit  s
bin	-INF	0
bin	-9.8001319065365	0
bin	-8.4933216416295	0
bin	-7.1865113767225	0
bin	-5.8797011118155	0
bin	-4.5728908469085	0
bin	-3.2660805820015	0
bin	-1.9592703170945	0
bin	-0.6524600521875	147
bin	0.6543502127195	6
bin	1.9611604776265	11
bin	3.2679707425335	11
bin	4.5747810074405	11
bin	5.8815912723475	11
bin	7.1884015372545	5
bin	8.4952118021615	5
bin	9.8020220670685	6
bin	11.108832331975	3
bin	12.415642596882	4
bin	13.722452861789	8
bin	15.029263126696	5
bin	16.336073391603	3
bin	17.64288365651	7
bin	18.949693921417	6
bin	20.256504186324	0
bin	21.563314451231	0
bin	22.870124716138	0
bin	24.176934981045	0
bin	25.483745245952	0
bin	26.790555510859	0
bin	28.097365775766	0
bin	29.404176040673	0
scalar scenarioPRJP1.node[9].app 	sentPk:count 	2609
attr interpolationmode  none
attr source  sentPk
attr title  "packets sent, count"
scalar scenarioPRJP1.node[9].app 	sentPk:sum(packetBytes) 	1335808
attr interpolationmode  none
attr source  sentPk
attr title  "packets sent, sum(packetBytes)"
scalar scenarioPRJP1.node[9].udp 	droppedPkBadChecksum:count 	0
attr interpolationmode  none
attr title  "packets dropped (checksum error), count"
scalar scenarioPRJP1.node[9].udp 	droppedPkWrongPort:count 	0
attr interpolationmode  none
attr title  "packets dropped (wrong port), count"
scalar scenarioPRJP1.node[9].udp 	passedUpPk:count 	288
attr interpolationmode  none
attr title  "packets passed up, count"
scalar scenarioPRJP1.node[9].udp 	rcvdPk:count 	288
attr interpolationmode  none
attr source  rcvdPk
attr title  "packets received, count"
scalar scenarioPRJP1.node[9].udp 	rcvdPk:sum(packetBytes) 	149760
attr interpolationmode  none
attr source  rcvdPk
attr title  "packets received, sum(packetBytes)"
scalar scenarioPRJP1.node[9].udp 	sentPk:count 	2609
attr interpolationmode  none
attr source  sentPk
attr title  "packets sent, count"
scalar scenarioPRJP1.node[9].udp 	sentPk:sum(packetBytes) 	1356680
attr interpolationmode  none
attr source  sentPk
attr title  "packets sent, sum(packetBytes)"
scalar scenarioPRJP1.node[9].networkLayer.arp 	failedARPResolution:count 	0
attr title  "ARP failed resolutions, count"
scalar scenarioPRJP1.node[9].networkLayer.arp 	completedARPResolution:count 	25
attr title  "ARP completed resolutions, count"
scalar scenarioPRJP1.node[9].networkLayer.arp 	initiatedARPResolution:count 	14
attr title  "ARP initiated resolutions, count"
scalar scenarioPRJP1.node[9].networkLayer.arp 	sentReply:count 	6
attr title  "ARP replies sent, count"
scalar scenarioPRJP1.node[9].networkLayer.arp 	sentReq:count 	14
attr title  "ARP request sent, count"
scalar scenarioPRJP1.node[9].mobility 	startTime 	2.5
scalar scenarioPRJP1.node[9].mobility 	totalTime 	947.5
scalar scenarioPRJP1.node[9].mobility 	stopTime 	950
scalar scenarioPRJP1.node[9].mobility 	minSpeed 	2.4754364887649e-13
scalar scenarioPRJP1.node[9].mobility 	maxSpeed 	19.01266271156
scalar scenarioPRJP1.node[9].mobility 	totalDistance 	8492.1922813893
scalar scenarioPRJP1.node[9].mobility 	totalCO2Emission 	2466.8592500651
scalar scenarioPRJP1.node[9].wlan.mgmt 	dataQueueLen:max 	0
attr interpolationmode  sample-hold
attr title  "data queue length, max"
scalar scenarioPRJP1.node[9].wlan.mgmt 	dataQueueLen:timeavg 	0
attr interpolationmode  sample-hold
attr title  "data queue length, timeavg"
scalar scenarioPRJP1.node[9].wlan.mgmt 	dropPkByQueue:count 	0
attr interpolationmode  none
attr source  dropPkByQueue
attr title  "packets dropped by queue, count"
scalar scenarioPRJP1.node[9].wlan.mgmt 	dropPkByQueue:sum(packetBytes) 	0
attr interpolationmode  none
attr source  dropPkByQueue
attr title  "packets dropped by queue, sum(packetBytes)"
scalar scenarioPRJP1.node[9].wlan.mac 	"number of received packets" 	1408
scalar scenarioPRJP1.node[9].wlan.mac 	"number of collisions" 	35
scalar scenarioPRJP1.node[9].wlan.mac 	"number of internal collisions" 	0
scalar scenarioPRJP1.node[9].wlan.mac 	"number of retry for AC 0" 	1292
scalar scenarioPRJP1.node[9].wlan.mac 	"number of retry for AC 1" 	0
scalar scenarioPRJP1.node[9].wlan.mac 	"number of retry for AC 2" 	0
scalar scenarioPRJP1.node[9].wlan.mac 	"number of retry for AC 3" 	0
scalar scenarioPRJP1.node[9].wlan.mac 	"sent and received bits" 	1771096
scalar scenarioPRJP1.node[9].wlan.mac 	"sent packet within AC 0" 	130
scalar scenarioPRJP1.node[9].wlan.mac 	"sent packet within AC 1" 	0
scalar scenarioPRJP1.node[9].wlan.mac 	"sent packet within AC 2" 	0
scalar scenarioPRJP1.node[9].wlan.mac 	"sent packet within AC 3" 	0
scalar scenarioPRJP1.node[9].wlan.mac 	"sent in TXOP " 	0
scalar scenarioPRJP1.node[9].wlan.mac 	"sentWithoutRetry AC 0" 	127
scalar scenarioPRJP1.node[9].wlan.mac 	"sentWithoutRetry AC 1" 	0
scalar scenarioPRJP1.node[9].wlan.mac 	"sentWithoutRetry AC 2" 	0
scalar scenarioPRJP1.node[9].wlan.mac 	"sentWithoutRetry AC 3" 	0
scalar scenarioPRJP1.node[9].wlan.mac 	"numGivenUp AC 0" 	214
scalar scenarioPRJP1.node[9].wlan.mac 	"numGivenUp AC 1" 	0
scalar scenarioPRJP1.node[9].wlan.mac 	"numGivenUp AC 2" 	0
scalar scenarioPRJP1.node[9].wlan.mac 	"numGivenUp AC 3" 	0
scalar scenarioPRJP1.node[9].wlan.mac 	"numDropped AC 0" 	0
scalar scenarioPRJP1.node[9].wlan.mac 	"numDropped AC 1" 	0
scalar scenarioPRJP1.node[9].wlan.mac 	"numDropped AC 2" 	0
scalar scenarioPRJP1.node[9].wlan.mac 	"numDropped AC 3" 	0
scalar scenarioPRJP1.node[9].wlan.mac 	rcvdPkFromLL:count 	5892
attr interpolationmode  none
attr source  packetReceivedFromLower
attr title  "packets received from lower layer, count"
scalar scenarioPRJP1.node[9].wlan.mac 	rcvdPkFromLL:sum(packetBytes) 	1410571
attr interpolationmode  none
attr source  packetReceivedFromLower
attr title  "packets received from lower layer, sum(packetBytes)"
scalar scenarioPRJP1.node[9].wlan.mac 	sentDownPk:count 	4717
attr interpolationmode  none
attr source  packetSentToLower
attr title  "packets sent to lower layer, count"
scalar scenarioPRJP1.node[9].wlan.mac 	sentDownPk:sum(packetBytes) 	1072519
attr interpolationmode  none
attr source  packetSentToLower
attr title  "packets sent to lower layer, sum(packetBytes)"
scalar scenarioPRJP1.node[9].wlan.mac 	rcvdPkFromHL:count 	2017
attr interpolationmode  none
attr source  packetReceivedFromUpper
attr title  "packets received from higher layer, count"
scalar scenarioPRJP1.node[9].wlan.mac 	rcvdPkFromHL:sum(packetBytes) 	339646
attr interpolationmode  none
attr source  packetReceivedFromUpper
attr title  "packets received from higher layer, sum(packetBytes)"
scalar scenarioPRJP1.node[9].wlan.mac 	passedUpPk:count 	1533
attr interpolationmode  none
attr source  packetSentToUpper
attr title  "packets passed to higher layer, count"
scalar scenarioPRJP1.node[9].wlan.mac 	passedUpPk:sum(packetBytes) 	294075
attr interpolationmode  none
attr source  packetSentToUpper
attr title  "packets passed to higher layer, sum(packetBytes)"
statistic scenarioPRJP1.node[9].wlan.radio 	radioChannel:histogram
field count 1
field mean 3
field stddev -nan
field sum 3
field sqrsum 9
field min 3
field max 3
attr interpolationmode  sample-hold
attr source  radioChannelChanged
attr title  "Radio channel, histogram"
bin	-INF	0
bin	2	0
bin	3	1
bin	4	0
scalar scenarioPRJP1.node[9].wlan.radio 	transmissionState:count 	18868
attr interpolationmode  sample-hold
attr source  transmissionStateChanged
attr title  "Radio transmission state, count"
scalar scenarioPRJP1.node[9].wlan.radio 	receptionState:count 	21224
attr interpolationmode  sample-hold
attr source  receptionStateChanged
attr title  "Radio reception state, count"
scalar scenarioPRJP1.node[9].wlan.radio 	radioMode:count 	9436
attr interpolationmode  sample-hold
attr source  radioModeChanged
attr title  "Radio mode, count"
statistic scenarioPRJP1.node[9].wlan.radio 	symbolErrorRate:histogram
field count 0
field mean -nan
field stddev -nan
field sum 0
field sqrsum 0
field min -nan
field max -nan
attr source  symbolErrorRate
attr title  "Symbol error rate, histogram"
bin	-INF	0
bin	-0.5	0
bin	-0.46666666666667	0
bin	-0.43333333333333	0
bin	-0.4	0
bin	-0.36666666666667	0
bin	-0.33333333333333	0
bin	-0.3	0
bin	-0.26666666666667	0
bin	-0.23333333333333	0
bin	-0.2	0
bin	-0.16666666666667	0
bin	-0.13333333333333	0
bin	-0.1	0
bin	-0.066666666666667	0
bin	-0.033333333333333	0
bin	0	0
bin	0.033333333333333	0
bin	0.066666666666667	0
bin	0.1	0
bin	0.13333333333333	0
bin	0.16666666666667	0
bin	0.2	0
bin	0.23333333333333	0
bin	0.26666666666667	0
bin	0.3	0
bin	0.33333333333333	0
bin	0.36666666666667	0
bin	0.4	0
bin	0.43333333333333	0
bin	0.46666666666667	0
bin	0.5	0
statistic scenarioPRJP1.node[9].wlan.radio 	bitErrorRate:histogram
field count 0
field mean -nan
field stddev -nan
field sum 0
field sqrsum 0
field min -nan
field max -nan
attr source  bitErrorRate
attr title  "Bit error rate, histogram"
bin	-INF	0
bin	-0.5	0
bin	-0.46666666666667	0
bin	-0.43333333333333	0
bin	-0.4	0
bin	-0.36666666666667	0
bin	-0.33333333333333	0
bin	-0.3	0
bin	-0.26666666666667	0
bin	-0.23333333333333	0
bin	-0.2	0
bin	-0.16666666666667	0
bin	-0.13333333333333	0
bin	-0.1	0
bin	-0.066666666666667	0
bin	-0.033333333333333	0
bin	0	0
bin	0.033333333333333	0
bin	0.066666666666667	0
bin	0.1	0
bin	0.13333333333333	0
bin	0.16666666666667	0
bin	0.2	0
bin	0.23333333333333	0
bin	0.26666666666667	0
bin	0.3	0
bin	0.33333333333333	0
bin	0.36666666666667	0
bin	0.4	0
bin	0.43333333333333	0
bin	0.46666666666667	0
bin	0.5	0
statistic scenarioPRJP1.node[9].wlan.radio 	packetErrorRate:histogram
field count 5892
field mean 0.005514198723146
field stddev 0.071367319029098
field sum 32.489658876776
field sqrsum 30.183750717331
field min 0
field max 1
attr source  packetErrorRate
attr title  "Packet error rate, histogram"
bin	-INF	0
bin	-0.5	0
bin	-0.46666666666667	0
bin	-0.43333333333333	0
bin	-0.4	0
bin	-0.36666666666667	0
bin	-0.33333333333333	0
bin	-0.3	0
bin	-0.26666666666667	0
bin	-0.23333333333333	0
bin	-0.2	0
bin	-0.16666666666667	0
bin	-0.13333333333333	0
bin	-0.1	0
bin	-0.066666666666667	0
bin	-0.033333333333333	0
bin	0	5851
bin	0.033333333333333	4
bin	0.066666666666667	2
bin	0.1	0
bin	0.13333333333333	0
bin	0.16666666666667	0
bin	0.2	0
bin	0.23333333333333	0
bin	0.26666666666667	0
bin	0.3	0
bin	0.33333333333333	0
bin	0.36666666666667	0
bin	0.4	2
bin	0.43333333333333	0
bin	0.46666666666667	0
bin	0.5	33
statistic scenarioPRJP1.node[9].wlan.radio 	minSNIR:histogram
field count 5892
field mean 2800.5390839587
field stddev 21515.720754176
field sum 16500776.282685
field sqrsum 2773309546212
field min 0.66092371431762
field max 1451852.0761458
attr source  minSNIR
attr title  "Min SNIR, histogram"
bin	-INF	0
bin	-21408.089327673	0
bin	-18550.435270774	0
bin	-15692.781213875	0
bin	-12835.127156975	0
bin	-9977.4731000762	0
bin	-7119.819043177	0
bin	-4262.1649862777	0
bin	-1404.5109293785	4968
bin	1453.1431275207	442
bin	4310.79718442	71
bin	7168.4512413192	38
bin	10026.105298218	17
bin	12883.759355118	35
bin	15741.413412017	19
bin	18599.067468916	12
bin	21456.721525815	162
bin	24314.375582715	10
bin	27172.029639614	8
bin	30029.683696513	9
bin	32887.337753412	7
bin	35744.991810312	12
bin	38602.645867211	6
bin	41460.29992411	5
bin	44317.953981009	6
bin	47175.608037909	11
bin	50033.262094808	5
bin	52890.916151707	6
bin	55748.570208606	4
bin	58606.224265506	6
bin	61463.878322405	6
bin	64321.532379304	27
scalar scenarioPRJP1.node[9].lo0.lo 	droppedPkBitError:count 	0
attr interpolationmode  none
attr source  dropPkBitError
attr title  "packets dropped/bit error, count"
scalar scenarioPRJP1.node[9].lo0.lo 	droppedPkBitError:sum(packetBytes) 	0
attr interpolationmode  none
attr source  dropPkBitError
attr title  "packets dropped/bit error, sum(packetBytes)"
scalar scenarioPRJP1.node[9].lo0.lo 	rcvdPkFromHL:count 	0
attr interpolationmode  none
attr source  packetReceivedFromUpper
attr title  "packets received from higher layer, count"
scalar scenarioPRJP1.node[9].lo0.lo 	rcvdPkFromHL:sum(packetBytes) 	0
attr interpolationmode  none
attr source  packetReceivedFromUpper
attr title  "packets received from higher layer, sum(packetBytes)"
scalar scenarioPRJP1.node[9].lo0.lo 	passedUpPk:count 	0
attr interpolationmode  none
attr source  packetSentToUpper
attr title  "packets passed to higher layer, count"
scalar scenarioPRJP1.node[9].lo0.lo 	passedUpPk:sum(packetBytes) 	0
attr interpolationmode  none
attr source  packetSentToUpper
attr title  "packets passed to higher layer, sum(packetBytes)"
