version 2
run DSRUU-LNS-100n-20-20150805-02:04:17-13536
attr configname DSRUU-LNS-100n
attr datetime 20150805-02:04:17
attr experiment DSRUU-LNS-100n
attr inifile omnetpp.ini
attr iterationvars ""
attr iterationvars2 $repetition=20
attr measurement ""
attr network Prj_Part1_propag.scenarioPRJP1
attr processid 13536
attr repetition 20
attr replication #20
attr resultdir results
attr runnumber 20
attr seedset 20

scalar scenarioPRJP1.node[48].app 	"Total sent" 	368
scalar scenarioPRJP1.node[48].app 	"Total received" 	14
scalar scenarioPRJP1.node[48].app 	"Total deleted" 	0
scalar scenarioPRJP1.node[48].app 	dropPk:count 	0
attr interpolationmode  none
attr source  dropPk
attr title  "packets dropped, count"
scalar scenarioPRJP1.node[48].app 	dropPk:sum(packetBytes) 	0
attr interpolationmode  none
attr source  dropPk
attr title  "packets dropped, sum(packetBytes)"
scalar scenarioPRJP1.node[48].app 	outOfOrderPk:count 	0
attr interpolationmode  none
attr source  outOfOrderPk
attr title  "packets received out of order, count"
scalar scenarioPRJP1.node[48].app 	outOfOrderPk:sum(packetBytes) 	0
attr interpolationmode  none
attr source  outOfOrderPk
attr title  "packets received out of order, sum(packetBytes)"
scalar scenarioPRJP1.node[48].app 	rcvdPk:count 	14
attr interpolationmode  none
attr source  rcvdPk
attr title  "packets received, count"
scalar scenarioPRJP1.node[48].app 	rcvdPk:sum(packetBytes) 	7168
attr interpolationmode  none
attr source  rcvdPk
attr title  "packets received, sum(packetBytes)"
statistic scenarioPRJP1.node[48].app 	endToEndDelay:histogram
field count 14
field mean 0.20958913503579
field stddev 0.37871819087764
field sum 2.934247890501
field sqrsum 2.4795435626719
field min 0.001901998452
field max 1.388564457763
attr interpolationmode  none
attr source  messageAge(rcvdPk)
attr title  "delay, histogram"
attr unit  s
bin	-INF	0
bin	-0.6914292312035	0
bin	-0.59898506724943	0
bin	-0.50654090329537	0
bin	-0.4140967393413	0
bin	-0.32165257538723	0
bin	-0.22920841143317	0
bin	-0.1367642474791	0
bin	-0.044320083525033	6
bin	0.048124080429033	5
bin	0.1405682443831	0
bin	0.23301240833717	0
bin	0.32545657229123	0
bin	0.4179007362453	1
bin	0.51034490019937	1
bin	0.60278906415343	0
bin	0.6952332281075	0
bin	0.78767739206157	0
bin	0.88012155601563	0
bin	0.9725657199697	0
bin	1.0650098839238	0
bin	1.1574540478778	0
bin	1.2498982118319	0
bin	1.342342375786	1
bin	1.43478653974	0
bin	1.5272307036941	0
bin	1.6196748676482	0
bin	1.7121190316022	0
bin	1.8045631955563	0
bin	1.8970073595104	0
bin	1.9894515234644	0
bin	2.0818956874185	0
scalar scenarioPRJP1.node[48].app 	sentPk:count 	368
attr interpolationmode  none
attr source  sentPk
attr title  "packets sent, count"
scalar scenarioPRJP1.node[48].app 	sentPk:sum(packetBytes) 	188416
attr interpolationmode  none
attr source  sentPk
attr title  "packets sent, sum(packetBytes)"
scalar scenarioPRJP1.node[48].udp 	droppedPkBadChecksum:count 	0
attr interpolationmode  none
attr title  "packets dropped (checksum error), count"
scalar scenarioPRJP1.node[48].udp 	droppedPkWrongPort:count 	0
attr interpolationmode  none
attr title  "packets dropped (wrong port), count"
scalar scenarioPRJP1.node[48].udp 	passedUpPk:count 	14
attr interpolationmode  none
attr title  "packets passed up, count"
scalar scenarioPRJP1.node[48].udp 	rcvdPk:count 	14
attr interpolationmode  none
attr source  rcvdPk
attr title  "packets received, count"
scalar scenarioPRJP1.node[48].udp 	rcvdPk:sum(packetBytes) 	7280
attr interpolationmode  none
attr source  rcvdPk
attr title  "packets received, sum(packetBytes)"
scalar scenarioPRJP1.node[48].udp 	sentPk:count 	368
attr interpolationmode  none
attr source  sentPk
attr title  "packets sent, count"
scalar scenarioPRJP1.node[48].udp 	sentPk:sum(packetBytes) 	191360
attr interpolationmode  none
attr source  sentPk
attr title  "packets sent, sum(packetBytes)"
scalar scenarioPRJP1.node[48].networkLayer.arp 	failedARPResolution:count 	81
attr title  "ARP failed resolutions, count"
scalar scenarioPRJP1.node[48].networkLayer.arp 	completedARPResolution:count 	1291
attr title  "ARP completed resolutions, count"
scalar scenarioPRJP1.node[48].networkLayer.arp 	initiatedARPResolution:count 	107
attr title  "ARP initiated resolutions, count"
scalar scenarioPRJP1.node[48].networkLayer.arp 	sentReply:count 	10
attr title  "ARP replies sent, count"
scalar scenarioPRJP1.node[48].networkLayer.arp 	sentReq:count 	286
attr title  "ARP request sent, count"
scalar scenarioPRJP1.node[48].mobility 	startTime 	4.9
scalar scenarioPRJP1.node[48].mobility 	totalTime 	154.5
scalar scenarioPRJP1.node[48].mobility 	stopTime 	159.5
scalar scenarioPRJP1.node[48].mobility 	minSpeed 	2.4757056074553e-13
scalar scenarioPRJP1.node[48].mobility 	maxSpeed 	18.793378635118
scalar scenarioPRJP1.node[48].mobility 	totalDistance 	1484.1436049365
scalar scenarioPRJP1.node[48].mobility 	totalCO2Emission 	465.64357386437
scalar scenarioPRJP1.node[48].wlan.mgmt 	dataQueueLen:max 	28
attr interpolationmode  sample-hold
attr title  "data queue length, max"
scalar scenarioPRJP1.node[48].wlan.mgmt 	dataQueueLen:timeavg 	0.25589414346139
attr interpolationmode  sample-hold
attr title  "data queue length, timeavg"
scalar scenarioPRJP1.node[48].wlan.mgmt 	dropPkByQueue:count 	0
attr interpolationmode  none
attr source  dropPkByQueue
attr title  "packets dropped by queue, count"
scalar scenarioPRJP1.node[48].wlan.mgmt 	dropPkByQueue:sum(packetBytes) 	0
attr interpolationmode  none
attr source  dropPkByQueue
attr title  "packets dropped by queue, sum(packetBytes)"
scalar scenarioPRJP1.node[48].wlan.mac 	"number of received packets" 	2067
scalar scenarioPRJP1.node[48].wlan.mac 	"number of collisions" 	47561
scalar scenarioPRJP1.node[48].wlan.mac 	"number of internal collisions" 	0
scalar scenarioPRJP1.node[48].wlan.mac 	"number of retry for AC 0" 	7759
scalar scenarioPRJP1.node[48].wlan.mac 	"number of retry for AC 1" 	0
scalar scenarioPRJP1.node[48].wlan.mac 	"number of retry for AC 2" 	0
scalar scenarioPRJP1.node[48].wlan.mac 	"number of retry for AC 3" 	0
scalar scenarioPRJP1.node[48].wlan.mac 	"sent and received bits" 	4348384
scalar scenarioPRJP1.node[48].wlan.mac 	"sent packet within AC 0" 	1333
scalar scenarioPRJP1.node[48].wlan.mac 	"sent packet within AC 1" 	0
scalar scenarioPRJP1.node[48].wlan.mac 	"sent packet within AC 2" 	0
scalar scenarioPRJP1.node[48].wlan.mac 	"sent packet within AC 3" 	0
scalar scenarioPRJP1.node[48].wlan.mac 	"sent in TXOP " 	0
scalar scenarioPRJP1.node[48].wlan.mac 	"sentWithoutRetry AC 0" 	855
scalar scenarioPRJP1.node[48].wlan.mac 	"sentWithoutRetry AC 1" 	0
scalar scenarioPRJP1.node[48].wlan.mac 	"sentWithoutRetry AC 2" 	0
scalar scenarioPRJP1.node[48].wlan.mac 	"sentWithoutRetry AC 3" 	0
scalar scenarioPRJP1.node[48].wlan.mac 	"numGivenUp AC 0" 	1118
scalar scenarioPRJP1.node[48].wlan.mac 	"numGivenUp AC 1" 	0
scalar scenarioPRJP1.node[48].wlan.mac 	"numGivenUp AC 2" 	0
scalar scenarioPRJP1.node[48].wlan.mac 	"numGivenUp AC 3" 	0
scalar scenarioPRJP1.node[48].wlan.mac 	"numDropped AC 0" 	202
scalar scenarioPRJP1.node[48].wlan.mac 	"numDropped AC 1" 	0
scalar scenarioPRJP1.node[48].wlan.mac 	"numDropped AC 2" 	0
scalar scenarioPRJP1.node[48].wlan.mac 	"numDropped AC 3" 	0
scalar scenarioPRJP1.node[48].wlan.mac 	rcvdPkFromLL:count 	103406
attr interpolationmode  none
attr source  packetReceivedFromLower
attr title  "packets received from lower layer, count"
scalar scenarioPRJP1.node[48].wlan.mac 	rcvdPkFromLL:sum(packetBytes) 	21621602
attr interpolationmode  none
attr source  packetReceivedFromLower
attr title  "packets received from lower layer, sum(packetBytes)"
scalar scenarioPRJP1.node[48].wlan.mac 	sentDownPk:count 	14794
attr interpolationmode  none
attr source  packetSentToLower
attr title  "packets sent to lower layer, count"
scalar scenarioPRJP1.node[48].wlan.mac 	sentDownPk:sum(packetBytes) 	3199082
attr interpolationmode  none
attr source  packetSentToLower
attr title  "packets sent to lower layer, sum(packetBytes)"
scalar scenarioPRJP1.node[48].wlan.mac 	rcvdPkFromHL:count 	5170
attr interpolationmode  none
attr source  packetReceivedFromUpper
attr title  "packets received from higher layer, count"
scalar scenarioPRJP1.node[48].wlan.mac 	rcvdPkFromHL:sum(packetBytes) 	908292
attr interpolationmode  none
attr source  packetReceivedFromUpper
attr title  "packets received from higher layer, sum(packetBytes)"
scalar scenarioPRJP1.node[48].wlan.mac 	passedUpPk:count 	11386
attr interpolationmode  none
attr source  packetSentToUpper
attr title  "packets passed to higher layer, count"
scalar scenarioPRJP1.node[48].wlan.mac 	passedUpPk:sum(packetBytes) 	1079160
attr interpolationmode  none
attr source  packetSentToUpper
attr title  "packets passed to higher layer, sum(packetBytes)"
statistic scenarioPRJP1.node[48].wlan.radio 	radioChannel:histogram
field count 1
field mean 3
field stddev nan
field sum 3
field sqrsum 9
field min 3
field max 3
attr interpolationmode  sample-hold
attr source  radioChannelChanged
attr title  "Radio channel, histogram"
bin	-INF	0
bin	2	0
bin	3	1
bin	4	0
scalar scenarioPRJP1.node[48].wlan.radio 	transmissionState:count 	59176
attr interpolationmode  sample-hold
attr source  transmissionStateChanged
attr title  "Radio transmission state, count"
scalar scenarioPRJP1.node[48].wlan.radio 	receptionState:count 	254342
attr interpolationmode  sample-hold
attr source  receptionStateChanged
attr title  "Radio reception state, count"
scalar scenarioPRJP1.node[48].wlan.radio 	radioMode:count 	29590
attr interpolationmode  sample-hold
attr source  radioModeChanged
attr title  "Radio mode, count"
statistic scenarioPRJP1.node[48].wlan.radio 	symbolErrorRate:histogram
field count 0
field mean nan
field stddev nan
field sum 0
field sqrsum 0
field min nan
field max nan
attr source  symbolErrorRate
attr title  "Symbol error rate, histogram"
bin	-INF	0
bin	-0.5	0
bin	-0.46666666666667	0
bin	-0.43333333333333	0
bin	-0.4	0
bin	-0.36666666666667	0
bin	-0.33333333333333	0
bin	-0.3	0
bin	-0.26666666666667	0
bin	-0.23333333333333	0
bin	-0.2	0
bin	-0.16666666666667	0
bin	-0.13333333333333	0
bin	-0.1	0
bin	-0.066666666666667	0
bin	-0.033333333333333	0
bin	0	0
bin	0.033333333333333	0
bin	0.066666666666667	0
bin	0.1	0
bin	0.13333333333333	0
bin	0.16666666666667	0
bin	0.2	0
bin	0.23333333333333	0
bin	0.26666666666667	0
bin	0.3	0
bin	0.33333333333333	0
bin	0.36666666666667	0
bin	0.4	0
bin	0.43333333333333	0
bin	0.46666666666667	0
bin	0.5	0
statistic scenarioPRJP1.node[48].wlan.radio 	bitErrorRate:histogram
field count 0
field mean nan
field stddev nan
field sum 0
field sqrsum 0
field min nan
field max nan
attr source  bitErrorRate
attr title  "Bit error rate, histogram"
bin	-INF	0
bin	-0.5	0
bin	-0.46666666666667	0
bin	-0.43333333333333	0
bin	-0.4	0
bin	-0.36666666666667	0
bin	-0.33333333333333	0
bin	-0.3	0
bin	-0.26666666666667	0
bin	-0.23333333333333	0
bin	-0.2	0
bin	-0.16666666666667	0
bin	-0.13333333333333	0
bin	-0.1	0
bin	-0.066666666666667	0
bin	-0.033333333333333	0
bin	0	0
bin	0.033333333333333	0
bin	0.066666666666667	0
bin	0.1	0
bin	0.13333333333333	0
bin	0.16666666666667	0
bin	0.2	0
bin	0.23333333333333	0
bin	0.26666666666667	0
bin	0.3	0
bin	0.33333333333333	0
bin	0.36666666666667	0
bin	0.4	0
bin	0.43333333333333	0
bin	0.46666666666667	0
bin	0.5	0
statistic scenarioPRJP1.node[48].wlan.radio 	packetErrorRate:histogram
field count 103406
field mean 0.43358591796291
field stddev 0.48492265194406
field sum 44835.385432872
field sqrsum 43755.675263324
field min 0
field max 1
attr source  packetErrorRate
attr title  "Packet error rate, histogram"
bin	-INF	0
bin	-0.5	0
bin	-0.43333333333333	0
bin	-0.36666666666667	0
bin	-0.3	0
bin	-0.23333333333333	0
bin	-0.16666666666667	0
bin	-0.1	0
bin	-0.033333333333333	54174
bin	0.033333333333333	1769
bin	0.1	877
bin	0.16666666666667	591
bin	0.23333333333333	459
bin	0.3	375
bin	0.36666666666667	353
bin	0.43333333333333	305
bin	0.5	283
bin	0.56666666666667	278
bin	0.63333333333333	279
bin	0.7	327
bin	0.76666666666667	339
bin	0.83333333333333	371
bin	0.9	552
bin	0.96666666666667	42074
bin	1.0333333333333	0
bin	1.1	0
bin	1.1666666666667	0
bin	1.2333333333333	0
bin	1.3	0
bin	1.3666666666667	0
bin	1.4333333333333	0
bin	1.5	0
statistic scenarioPRJP1.node[48].wlan.radio 	minSNIR:histogram
field count 103406
field mean 104.20076079629
field stddev 2603.4080082461
field sum 10774983.870901
field sqrsum 701974268998.38
field min 0.00010707057331534
field max 444539.64274627
attr source  minSNIR
attr title  "Min SNIR, histogram"
bin	-INF	0
bin	-1615.9153970788	0
bin	-1400.4580396922	0
bin	-1185.0006823057	0
bin	-969.54332491922	0
bin	-754.08596753271	0
bin	-538.62861014621	0
bin	-323.1712527597	0
bin	-107.71389537319	96131
bin	107.74346201332	4084
bin	323.20081939983	1014
bin	538.65817678634	491
bin	754.11553417285	303
bin	969.57289155936	216
bin	1185.0302489459	160
bin	1400.4876063324	129
bin	1615.9449637189	86
bin	1831.4023211054	81
bin	2046.8596784919	60
bin	2262.3170358784	61
bin	2477.7743932649	31
bin	2693.2317506514	38
bin	2908.6891080379	36
bin	3124.1464654244	38
bin	3339.603822811	29
bin	3555.0611801975	31
bin	3770.518537584	18
bin	3985.9758949705	28
bin	4201.433252357	20
bin	4416.8906097435	14
bin	4632.34796713	14
bin	4847.8053245165	293
scalar scenarioPRJP1.node[48].lo0.lo 	droppedPkBitError:count 	0
attr interpolationmode  none
attr source  dropPkBitError
attr title  "packets dropped/bit error, count"
scalar scenarioPRJP1.node[48].lo0.lo 	droppedPkBitError:sum(packetBytes) 	0
attr interpolationmode  none
attr source  dropPkBitError
attr title  "packets dropped/bit error, sum(packetBytes)"
scalar scenarioPRJP1.node[48].lo0.lo 	rcvdPkFromHL:count 	14
attr interpolationmode  none
attr source  packetReceivedFromUpper
attr title  "packets received from higher layer, count"
scalar scenarioPRJP1.node[48].lo0.lo 	rcvdPkFromHL:sum(packetBytes) 	7280
attr interpolationmode  none
attr source  packetReceivedFromUpper
attr title  "packets received from higher layer, sum(packetBytes)"
scalar scenarioPRJP1.node[48].lo0.lo 	passedUpPk:count 	14
attr interpolationmode  none
attr source  packetSentToUpper
attr title  "packets passed to higher layer, count"
scalar scenarioPRJP1.node[48].lo0.lo 	passedUpPk:sum(packetBytes) 	7280
attr interpolationmode  none
attr source  packetSentToUpper
attr title  "packets passed to higher layer, sum(packetBytes)"
scalar scenarioPRJP1.node[86].app 	"Total sent" 	373
scalar scenarioPRJP1.node[86].app 	"Total received" 	9
scalar scenarioPRJP1.node[86].app 	"Total deleted" 	0
scalar scenarioPRJP1.node[86].app 	dropPk:count 	0
attr interpolationmode  none
attr source  dropPk
attr title  "packets dropped, count"
scalar scenarioPRJP1.node[86].app 	dropPk:sum(packetBytes) 	0
attr interpolationmode  none
attr source  dropPk
attr title  "packets dropped, sum(packetBytes)"
scalar scenarioPRJP1.node[86].app 	outOfOrderPk:count 	1
attr interpolationmode  none
attr source  outOfOrderPk
attr title  "packets received out of order, count"
scalar scenarioPRJP1.node[86].app 	outOfOrderPk:sum(packetBytes) 	512
attr interpolationmode  none
attr source  outOfOrderPk
attr title  "packets received out of order, sum(packetBytes)"
scalar scenarioPRJP1.node[86].app 	rcvdPk:count 	9
attr interpolationmode  none
attr source  rcvdPk
attr title  "packets received, count"
scalar scenarioPRJP1.node[86].app 	rcvdPk:sum(packetBytes) 	4608
attr interpolationmode  none
attr source  rcvdPk
attr title  "packets received, sum(packetBytes)"
statistic scenarioPRJP1.node[86].app 	endToEndDelay:histogram
field count 9
field mean 0.34650554227622
field stddev 0.4425970459972
field sum 3.118549880486
field sqrsum 2.6477319784568
field min 0.003161720321
field max 1.290437190121
attr interpolationmode  none
attr source  messageAge(rcvdPk)
attr title  "delay, histogram"
attr unit  s
bin	-INF	0
bin	-0.640476014579	0
bin	-0.55465764992567	0
bin	-0.46883928527233	0
bin	-0.383020920619	0
bin	-0.29720255596567	0
bin	-0.21138419131233	0
bin	-0.125565826659	0
bin	-0.039747462005667	1
bin	0.046070902647667	4
bin	0.131889267301	0
bin	0.21770763195433	1
bin	0.30352599660767	1
bin	0.389344361261	0
bin	0.47516272591433	0
bin	0.56098109056767	0
bin	0.646799455221	0
bin	0.73261781987433	0
bin	0.81843618452767	1
bin	0.904254549181	0
bin	0.99007291383433	0
bin	1.0758912784877	0
bin	1.161709643141	0
bin	1.2475280077943	1
bin	1.3333463724477	0
bin	1.419164737101	0
bin	1.5049831017543	0
bin	1.5908014664077	0
bin	1.676619831061	0
bin	1.7624381957143	0
bin	1.8482565603677	0
bin	1.934074925021	0
scalar scenarioPRJP1.node[86].app 	sentPk:count 	373
attr interpolationmode  none
attr source  sentPk
attr title  "packets sent, count"
scalar scenarioPRJP1.node[86].app 	sentPk:sum(packetBytes) 	190976
attr interpolationmode  none
attr source  sentPk
attr title  "packets sent, sum(packetBytes)"
scalar scenarioPRJP1.node[86].udp 	droppedPkBadChecksum:count 	0
attr interpolationmode  none
attr title  "packets dropped (checksum error), count"
scalar scenarioPRJP1.node[86].udp 	droppedPkWrongPort:count 	0
attr interpolationmode  none
attr title  "packets dropped (wrong port), count"
scalar scenarioPRJP1.node[86].udp 	passedUpPk:count 	10
attr interpolationmode  none
attr title  "packets passed up, count"
scalar scenarioPRJP1.node[86].udp 	rcvdPk:count 	10
attr interpolationmode  none
attr source  rcvdPk
attr title  "packets received, count"
scalar scenarioPRJP1.node[86].udp 	rcvdPk:sum(packetBytes) 	5200
attr interpolationmode  none
attr source  rcvdPk
attr title  "packets received, sum(packetBytes)"
scalar scenarioPRJP1.node[86].udp 	sentPk:count 	373
attr interpolationmode  none
attr source  sentPk
attr title  "packets sent, count"
scalar scenarioPRJP1.node[86].udp 	sentPk:sum(packetBytes) 	193960
attr interpolationmode  none
attr source  sentPk
attr title  "packets sent, sum(packetBytes)"
scalar scenarioPRJP1.node[86].networkLayer.arp 	failedARPResolution:count 	101
attr title  "ARP failed resolutions, count"
scalar scenarioPRJP1.node[86].networkLayer.arp 	completedARPResolution:count 	1304
attr title  "ARP completed resolutions, count"
scalar scenarioPRJP1.node[86].networkLayer.arp 	initiatedARPResolution:count 	136
attr title  "ARP initiated resolutions, count"
scalar scenarioPRJP1.node[86].networkLayer.arp 	sentReply:count 	10
attr title  "ARP replies sent, count"
scalar scenarioPRJP1.node[86].networkLayer.arp 	sentReq:count 	370
attr title  "ARP request sent, count"
scalar scenarioPRJP1.node[86].mobility 	startTime 	9.7
scalar scenarioPRJP1.node[86].mobility 	totalTime 	150.3
scalar scenarioPRJP1.node[86].mobility 	stopTime 	160.1
scalar scenarioPRJP1.node[86].mobility 	minSpeed 	2.4776131553626e-13
scalar scenarioPRJP1.node[86].mobility 	maxSpeed 	17.939302389935
scalar scenarioPRJP1.node[86].mobility 	totalDistance 	1484.3348847143
scalar scenarioPRJP1.node[86].mobility 	totalCO2Emission 	444.0314342361
scalar scenarioPRJP1.node[86].wlan.mgmt 	dataQueueLen:max 	3
attr interpolationmode  sample-hold
attr title  "data queue length, max"
scalar scenarioPRJP1.node[86].wlan.mgmt 	dataQueueLen:timeavg 	0
attr interpolationmode  sample-hold
attr title  "data queue length, timeavg"
scalar scenarioPRJP1.node[86].wlan.mgmt 	dropPkByQueue:count 	0
attr interpolationmode  none
attr source  dropPkByQueue
attr title  "packets dropped by queue, count"
scalar scenarioPRJP1.node[86].wlan.mgmt 	dropPkByQueue:sum(packetBytes) 	0
attr interpolationmode  none
attr source  dropPkByQueue
attr title  "packets dropped by queue, sum(packetBytes)"
scalar scenarioPRJP1.node[86].wlan.mac 	"number of received packets" 	1463
scalar scenarioPRJP1.node[86].wlan.mac 	"number of collisions" 	43088
scalar scenarioPRJP1.node[86].wlan.mac 	"number of internal collisions" 	0
scalar scenarioPRJP1.node[86].wlan.mac 	"number of retry for AC 0" 	8128
scalar scenarioPRJP1.node[86].wlan.mac 	"number of retry for AC 1" 	0
scalar scenarioPRJP1.node[86].wlan.mac 	"number of retry for AC 2" 	0
scalar scenarioPRJP1.node[86].wlan.mac 	"number of retry for AC 3" 	0
scalar scenarioPRJP1.node[86].wlan.mac 	"sent and received bits" 	2804992
scalar scenarioPRJP1.node[86].wlan.mac 	"sent packet within AC 0" 	935
scalar scenarioPRJP1.node[86].wlan.mac 	"sent packet within AC 1" 	0
scalar scenarioPRJP1.node[86].wlan.mac 	"sent packet within AC 2" 	0
scalar scenarioPRJP1.node[86].wlan.mac 	"sent packet within AC 3" 	0
scalar scenarioPRJP1.node[86].wlan.mac 	"sent in TXOP " 	0
scalar scenarioPRJP1.node[86].wlan.mac 	"sentWithoutRetry AC 0" 	674
scalar scenarioPRJP1.node[86].wlan.mac 	"sentWithoutRetry AC 1" 	0
scalar scenarioPRJP1.node[86].wlan.mac 	"sentWithoutRetry AC 2" 	0
scalar scenarioPRJP1.node[86].wlan.mac 	"sentWithoutRetry AC 3" 	0
scalar scenarioPRJP1.node[86].wlan.mac 	"numGivenUp AC 0" 	1265
scalar scenarioPRJP1.node[86].wlan.mac 	"numGivenUp AC 1" 	0
scalar scenarioPRJP1.node[86].wlan.mac 	"numGivenUp AC 2" 	0
scalar scenarioPRJP1.node[86].wlan.mac 	"numGivenUp AC 3" 	0
scalar scenarioPRJP1.node[86].wlan.mac 	"numDropped AC 0" 	0
scalar scenarioPRJP1.node[86].wlan.mac 	"numDropped AC 1" 	0
scalar scenarioPRJP1.node[86].wlan.mac 	"numDropped AC 2" 	0
scalar scenarioPRJP1.node[86].wlan.mac 	"numDropped AC 3" 	0
scalar scenarioPRJP1.node[86].wlan.mac 	rcvdPkFromLL:count 	78270
attr interpolationmode  none
attr source  packetReceivedFromLower
attr title  "packets received from lower layer, count"
scalar scenarioPRJP1.node[86].wlan.mac 	rcvdPkFromLL:sum(packetBytes) 	17392558
attr interpolationmode  none
attr source  packetReceivedFromLower
attr title  "packets received from lower layer, sum(packetBytes)"
scalar scenarioPRJP1.node[86].wlan.mac 	sentDownPk:count 	13405
attr interpolationmode  none
attr source  packetSentToLower
attr title  "packets sent to lower layer, count"
scalar scenarioPRJP1.node[86].wlan.mac 	sentDownPk:sum(packetBytes) 	3202354
attr interpolationmode  none
attr source  packetSentToLower
attr title  "packets sent to lower layer, sum(packetBytes)"
scalar scenarioPRJP1.node[86].wlan.mac 	rcvdPkFromHL:count 	3814
attr interpolationmode  none
attr source  packetReceivedFromUpper
attr title  "packets received from higher layer, count"
scalar scenarioPRJP1.node[86].wlan.mac 	rcvdPkFromHL:sum(packetBytes) 	733340
attr interpolationmode  none
attr source  packetReceivedFromUpper
attr title  "packets received from higher layer, sum(packetBytes)"
scalar scenarioPRJP1.node[86].wlan.mac 	passedUpPk:count 	6001
attr interpolationmode  none
attr source  packetSentToUpper
attr title  "packets passed to higher layer, count"
scalar scenarioPRJP1.node[86].wlan.mac 	passedUpPk:sum(packetBytes) 	636528
attr interpolationmode  none
attr source  packetSentToUpper
attr title  "packets passed to higher layer, sum(packetBytes)"
statistic scenarioPRJP1.node[86].wlan.radio 	radioChannel:histogram
field count 1
field mean 3
field stddev nan
field sum 3
field sqrsum 9
field min 3
field max 3
attr interpolationmode  sample-hold
attr source  radioChannelChanged
attr title  "Radio channel, histogram"
bin	-INF	0
bin	2	0
bin	3	1
bin	4	0
scalar scenarioPRJP1.node[86].wlan.radio 	transmissionState:count 	53620
attr interpolationmode  sample-hold
attr source  transmissionStateChanged
attr title  "Radio transmission state, count"
scalar scenarioPRJP1.node[86].wlan.radio 	receptionState:count 	204253
attr interpolationmode  sample-hold
attr source  receptionStateChanged
attr title  "Radio reception state, count"
scalar scenarioPRJP1.node[86].wlan.radio 	radioMode:count 	26812
attr interpolationmode  sample-hold
attr source  radioModeChanged
attr title  "Radio mode, count"
statistic scenarioPRJP1.node[86].wlan.radio 	symbolErrorRate:histogram
field count 0
field mean nan
field stddev nan
field sum 0
field sqrsum 0
field min nan
field max nan
attr source  symbolErrorRate
attr title  "Symbol error rate, histogram"
bin	-INF	0
bin	-0.5	0
bin	-0.46666666666667	0
bin	-0.43333333333333	0
bin	-0.4	0
bin	-0.36666666666667	0
bin	-0.33333333333333	0
bin	-0.3	0
bin	-0.26666666666667	0
bin	-0.23333333333333	0
bin	-0.2	0
bin	-0.16666666666667	0
bin	-0.13333333333333	0
bin	-0.1	0
bin	-0.066666666666667	0
bin	-0.033333333333333	0
bin	0	0
bin	0.033333333333333	0
bin	0.066666666666667	0
bin	0.1	0
bin	0.13333333333333	0
bin	0.16666666666667	0
bin	0.2	0
bin	0.23333333333333	0
bin	0.26666666666667	0
bin	0.3	0
bin	0.33333333333333	0
bin	0.36666666666667	0
bin	0.4	0
bin	0.43333333333333	0
bin	0.46666666666667	0
bin	0.5	0
statistic scenarioPRJP1.node[86].wlan.radio 	bitErrorRate:histogram
field count 0
field mean nan
field stddev nan
field sum 0
field sqrsum 0
field min nan
field max nan
attr source  bitErrorRate
attr title  "Bit error rate, histogram"
bin	-INF	0
bin	-0.5	0
bin	-0.46666666666667	0
bin	-0.43333333333333	0
bin	-0.4	0
bin	-0.36666666666667	0
bin	-0.33333333333333	0
bin	-0.3	0
bin	-0.26666666666667	0
bin	-0.23333333333333	0
bin	-0.2	0
bin	-0.16666666666667	0
bin	-0.13333333333333	0
bin	-0.1	0
bin	-0.066666666666667	0
bin	-0.033333333333333	0
bin	0	0
bin	0.033333333333333	0
bin	0.066666666666667	0
bin	0.1	0
bin	0.13333333333333	0
bin	0.16666666666667	0
bin	0.2	0
bin	0.23333333333333	0
bin	0.26666666666667	0
bin	0.3	0
bin	0.33333333333333	0
bin	0.36666666666667	0
bin	0.4	0
bin	0.43333333333333	0
bin	0.46666666666667	0
bin	0.5	0
statistic scenarioPRJP1.node[86].wlan.radio 	packetErrorRate:histogram
field count 78270
field mean 0.52406377728354
field stddev 0.48904959860618
field sum 41018.471847982
field sqrsum 40215.85366517
field min 0
field max 1
attr source  packetErrorRate
attr title  "Packet error rate, histogram"
bin	-INF	0
bin	-0.5	0
bin	-0.43333333333333	0
bin	-0.36666666666667	0
bin	-0.3	0
bin	-0.23333333333333	0
bin	-0.16666666666667	0
bin	-0.1	0
bin	-0.033333333333333	34064
bin	0.033333333333333	1240
bin	0.1	625
bin	0.16666666666667	413
bin	0.23333333333333	329
bin	0.3	299
bin	0.36666666666667	267
bin	0.43333333333333	255
bin	0.5	228
bin	0.56666666666667	212
bin	0.63333333333333	210
bin	0.7	208
bin	0.76666666666667	257
bin	0.83333333333333	297
bin	0.9	452
bin	0.96666666666667	38914
bin	1.0333333333333	0
bin	1.1	0
bin	1.1666666666667	0
bin	1.2333333333333	0
bin	1.3	0
bin	1.3666666666667	0
bin	1.4333333333333	0
bin	1.5	0
statistic scenarioPRJP1.node[86].wlan.radio 	minSNIR:histogram
field count 78270
field mean 207.75833978465
field stddev 4294.1572026945
field sum 16261245.254945
field sqrsum 1446642026126.2
field min 6.6387200707232e-05
field max 886847.76095343
attr source  minSNIR
attr title  "Min SNIR, histogram"
bin	-INF	0
bin	-91.902214012562	0
bin	-79.644409767068	0
bin	-67.386605521575	0
bin	-55.128801276082	0
bin	-42.870997030589	0
bin	-30.613192785096	0
bin	-18.355388539603	0
bin	-6.0975842941096	52409
bin	6.1602199513836	9600
bin	18.418024196877	2820
bin	30.67582844237	1509
bin	42.933632687863	933
bin	55.191436933356	723
bin	67.449241178849	577
bin	79.707045424342	456
bin	91.964849669836	354
bin	104.22265391533	301
bin	116.48045816082	284
bin	128.73826240631	270
bin	140.99606665181	263
bin	153.2538708973	200
bin	165.51167514279	185
bin	177.76947938829	170
bin	190.02728363378	124
bin	202.28508787927	128
bin	214.54289212477	137
bin	226.80069637026	120
bin	239.05850061575	131
bin	251.31630486125	126
bin	263.57410910674	97
bin	275.83191335223	6353
scalar scenarioPRJP1.node[86].lo0.lo 	droppedPkBitError:count 	0
attr interpolationmode  none
attr source  dropPkBitError
attr title  "packets dropped/bit error, count"
scalar scenarioPRJP1.node[86].lo0.lo 	droppedPkBitError:sum(packetBytes) 	0
attr interpolationmode  none
attr source  dropPkBitError
attr title  "packets dropped/bit error, sum(packetBytes)"
scalar scenarioPRJP1.node[86].lo0.lo 	rcvdPkFromHL:count 	10
attr interpolationmode  none
attr source  packetReceivedFromUpper
attr title  "packets received from higher layer, count"
scalar scenarioPRJP1.node[86].lo0.lo 	rcvdPkFromHL:sum(packetBytes) 	5200
attr interpolationmode  none
attr source  packetReceivedFromUpper
attr title  "packets received from higher layer, sum(packetBytes)"
scalar scenarioPRJP1.node[86].lo0.lo 	passedUpPk:count 	10
attr interpolationmode  none
attr source  packetSentToUpper
attr title  "packets passed to higher layer, count"
scalar scenarioPRJP1.node[86].lo0.lo 	passedUpPk:sum(packetBytes) 	5200
attr interpolationmode  none
attr source  packetSentToUpper
attr title  "packets passed to higher layer, sum(packetBytes)"
scalar scenarioPRJP1.node[72].app 	"Total sent" 	368
scalar scenarioPRJP1.node[72].app 	"Total received" 	15
scalar scenarioPRJP1.node[72].app 	"Total deleted" 	0
scalar scenarioPRJP1.node[72].app 	dropPk:count 	0
attr interpolationmode  none
attr source  dropPk
attr title  "packets dropped, count"
scalar scenarioPRJP1.node[72].app 	dropPk:sum(packetBytes) 	0
attr interpolationmode  none
attr source  dropPk
attr title  "packets dropped, sum(packetBytes)"
scalar scenarioPRJP1.node[72].app 	outOfOrderPk:count 	0
attr interpolationmode  none
attr source  outOfOrderPk
attr title  "packets received out of order, count"
scalar scenarioPRJP1.node[72].app 	outOfOrderPk:sum(packetBytes) 	0
attr interpolationmode  none
attr source  outOfOrderPk
attr title  "packets received out of order, sum(packetBytes)"
scalar scenarioPRJP1.node[72].app 	rcvdPk:count 	15
attr interpolationmode  none
attr source  rcvdPk
attr title  "packets received, count"
scalar scenarioPRJP1.node[72].app 	rcvdPk:sum(packetBytes) 	7680
attr interpolationmode  none
attr source  rcvdPk
attr title  "packets received, sum(packetBytes)"
statistic scenarioPRJP1.node[72].app 	endToEndDelay:histogram
field count 15
field mean 0.1851405937314
field stddev 0.2049069912601
field sum 2.777108905971
field sqrsum 1.1019718426499
field min 0.000977158498
field max 0.662604400114
attr interpolationmode  none
attr source  messageAge(rcvdPk)
attr title  "delay, histogram"
attr unit  s
bin	-INF	0
bin	-0.32983646231	0
bin	-0.2857279795356	0
bin	-0.2416194967612	0
bin	-0.1975110139868	0
bin	-0.1534025312124	0
bin	-0.109294048438	0
bin	-0.0651855656636	0
bin	-0.0210770828892	1
bin	0.0230313998852	3
bin	0.0671398826596	5
bin	0.111248365434	1
bin	0.1553568482084	1
bin	0.1994653309828	1
bin	0.2435738137572	0
bin	0.2876822965316	0
bin	0.331790779306	0
bin	0.3758992620804	0
bin	0.4200077448548	1
bin	0.4641162276292	0
bin	0.5082247104036	0
bin	0.552333193178	1
bin	0.5964416759524	0
bin	0.6405501587268	1
bin	0.6846586415012	0
bin	0.7287671242756	0
bin	0.77287560705	0
bin	0.8169840898244	0
bin	0.8610925725988	0
bin	0.9052010553732	0
bin	0.9493095381476	0
bin	0.993418020922	0
scalar scenarioPRJP1.node[72].app 	sentPk:count 	368
attr interpolationmode  none
attr source  sentPk
attr title  "packets sent, count"
scalar scenarioPRJP1.node[72].app 	sentPk:sum(packetBytes) 	188416
attr interpolationmode  none
attr source  sentPk
attr title  "packets sent, sum(packetBytes)"
scalar scenarioPRJP1.node[72].udp 	droppedPkBadChecksum:count 	0
attr interpolationmode  none
attr title  "packets dropped (checksum error), count"
scalar scenarioPRJP1.node[72].udp 	droppedPkWrongPort:count 	0
attr interpolationmode  none
attr title  "packets dropped (wrong port), count"
scalar scenarioPRJP1.node[72].udp 	passedUpPk:count 	15
attr interpolationmode  none
attr title  "packets passed up, count"
scalar scenarioPRJP1.node[72].udp 	rcvdPk:count 	15
attr interpolationmode  none
attr source  rcvdPk
attr title  "packets received, count"
scalar scenarioPRJP1.node[72].udp 	rcvdPk:sum(packetBytes) 	7800
attr interpolationmode  none
attr source  rcvdPk
attr title  "packets received, sum(packetBytes)"
scalar scenarioPRJP1.node[72].udp 	sentPk:count 	368
attr interpolationmode  none
attr source  sentPk
attr title  "packets sent, count"
scalar scenarioPRJP1.node[72].udp 	sentPk:sum(packetBytes) 	191360
attr interpolationmode  none
attr source  sentPk
attr title  "packets sent, sum(packetBytes)"
scalar scenarioPRJP1.node[72].networkLayer.arp 	failedARPResolution:count 	111
attr title  "ARP failed resolutions, count"
scalar scenarioPRJP1.node[72].networkLayer.arp 	completedARPResolution:count 	1506
attr title  "ARP completed resolutions, count"
scalar scenarioPRJP1.node[72].networkLayer.arp 	initiatedARPResolution:count 	145
attr title  "ARP initiated resolutions, count"
scalar scenarioPRJP1.node[72].networkLayer.arp 	sentReply:count 	10
attr title  "ARP replies sent, count"
scalar scenarioPRJP1.node[72].networkLayer.arp 	sentReq:count 	394
attr title  "ARP request sent, count"
scalar scenarioPRJP1.node[72].mobility 	startTime 	7.4
scalar scenarioPRJP1.node[72].mobility 	totalTime 	153.1
scalar scenarioPRJP1.node[72].mobility 	stopTime 	160.6
scalar scenarioPRJP1.node[72].mobility 	minSpeed 	2.475636570384e-13
scalar scenarioPRJP1.node[72].mobility 	maxSpeed 	17.558655641905
scalar scenarioPRJP1.node[72].mobility 	totalDistance 	1484.2939955785
scalar scenarioPRJP1.node[72].mobility 	totalCO2Emission 	444.87096693461
scalar scenarioPRJP1.node[72].wlan.mgmt 	dataQueueLen:max 	25
attr interpolationmode  sample-hold
attr title  "data queue length, max"
scalar scenarioPRJP1.node[72].wlan.mgmt 	dataQueueLen:timeavg 	0.17018263688759
attr interpolationmode  sample-hold
attr title  "data queue length, timeavg"
scalar scenarioPRJP1.node[72].wlan.mgmt 	dropPkByQueue:count 	0
attr interpolationmode  none
attr source  dropPkByQueue
attr title  "packets dropped by queue, count"
scalar scenarioPRJP1.node[72].wlan.mgmt 	dropPkByQueue:sum(packetBytes) 	0
attr interpolationmode  none
attr source  dropPkByQueue
attr title  "packets dropped by queue, sum(packetBytes)"
scalar scenarioPRJP1.node[72].wlan.mac 	"number of received packets" 	2026
scalar scenarioPRJP1.node[72].wlan.mac 	"number of collisions" 	51089
scalar scenarioPRJP1.node[72].wlan.mac 	"number of internal collisions" 	0
scalar scenarioPRJP1.node[72].wlan.mac 	"number of retry for AC 0" 	9048
scalar scenarioPRJP1.node[72].wlan.mac 	"number of retry for AC 1" 	0
scalar scenarioPRJP1.node[72].wlan.mac 	"number of retry for AC 2" 	0
scalar scenarioPRJP1.node[72].wlan.mac 	"number of retry for AC 3" 	0
scalar scenarioPRJP1.node[72].wlan.mac 	"sent and received bits" 	3831968
scalar scenarioPRJP1.node[72].wlan.mac 	"sent packet within AC 0" 	1186
scalar scenarioPRJP1.node[72].wlan.mac 	"sent packet within AC 1" 	0
scalar scenarioPRJP1.node[72].wlan.mac 	"sent packet within AC 2" 	0
scalar scenarioPRJP1.node[72].wlan.mac 	"sent packet within AC 3" 	0
scalar scenarioPRJP1.node[72].wlan.mac 	"sent in TXOP " 	0
scalar scenarioPRJP1.node[72].wlan.mac 	"sentWithoutRetry AC 0" 	778
scalar scenarioPRJP1.node[72].wlan.mac 	"sentWithoutRetry AC 1" 	0
scalar scenarioPRJP1.node[72].wlan.mac 	"sentWithoutRetry AC 2" 	0
scalar scenarioPRJP1.node[72].wlan.mac 	"sentWithoutRetry AC 3" 	0
scalar scenarioPRJP1.node[72].wlan.mac 	"numGivenUp AC 0" 	1358
scalar scenarioPRJP1.node[72].wlan.mac 	"numGivenUp AC 1" 	0
scalar scenarioPRJP1.node[72].wlan.mac 	"numGivenUp AC 2" 	0
scalar scenarioPRJP1.node[72].wlan.mac 	"numGivenUp AC 3" 	0
scalar scenarioPRJP1.node[72].wlan.mac 	"numDropped AC 0" 	85
scalar scenarioPRJP1.node[72].wlan.mac 	"numDropped AC 1" 	0
scalar scenarioPRJP1.node[72].wlan.mac 	"numDropped AC 2" 	0
scalar scenarioPRJP1.node[72].wlan.mac 	"numDropped AC 3" 	0
scalar scenarioPRJP1.node[72].wlan.mac 	rcvdPkFromLL:count 	102493
attr interpolationmode  none
attr source  packetReceivedFromLower
attr title  "packets received from lower layer, count"
scalar scenarioPRJP1.node[72].wlan.mac 	rcvdPkFromLL:sum(packetBytes) 	22138626
attr interpolationmode  none
attr source  packetReceivedFromLower
attr title  "packets received from lower layer, sum(packetBytes)"
scalar scenarioPRJP1.node[72].wlan.mac 	sentDownPk:count 	15967
attr interpolationmode  none
attr source  packetSentToLower
attr title  "packets sent to lower layer, count"
scalar scenarioPRJP1.node[72].wlan.mac 	sentDownPk:sum(packetBytes) 	3556352
attr interpolationmode  none
attr source  packetSentToLower
attr title  "packets sent to lower layer, sum(packetBytes)"
scalar scenarioPRJP1.node[72].wlan.mac 	rcvdPkFromHL:count 	4978
attr interpolationmode  none
attr source  packetReceivedFromUpper
attr title  "packets received from higher layer, count"
scalar scenarioPRJP1.node[72].wlan.mac 	rcvdPkFromHL:sum(packetBytes) 	893804
attr interpolationmode  none
attr source  packetReceivedFromUpper
attr title  "packets received from higher layer, sum(packetBytes)"
scalar scenarioPRJP1.node[72].wlan.mac 	passedUpPk:count 	9373
attr interpolationmode  none
attr source  packetSentToUpper
attr title  "packets passed to higher layer, count"
scalar scenarioPRJP1.node[72].wlan.mac 	passedUpPk:sum(packetBytes) 	941276
attr interpolationmode  none
attr source  packetSentToUpper
attr title  "packets passed to higher layer, sum(packetBytes)"
statistic scenarioPRJP1.node[72].wlan.radio 	radioChannel:histogram
field count 1
field mean 3
field stddev nan
field sum 3
field sqrsum 9
field min 3
field max 3
attr interpolationmode  sample-hold
attr source  radioChannelChanged
attr title  "Radio channel, histogram"
bin	-INF	0
bin	2	0
bin	3	1
bin	4	0
scalar scenarioPRJP1.node[72].wlan.radio 	transmissionState:count 	63868
attr interpolationmode  sample-hold
attr source  transmissionStateChanged
attr title  "Radio transmission state, count"
scalar scenarioPRJP1.node[72].wlan.radio 	receptionState:count 	255269
attr interpolationmode  sample-hold
attr source  receptionStateChanged
attr title  "Radio reception state, count"
scalar scenarioPRJP1.node[72].wlan.radio 	radioMode:count 	31936
attr interpolationmode  sample-hold
attr source  radioModeChanged
attr title  "Radio mode, count"
statistic scenarioPRJP1.node[72].wlan.radio 	symbolErrorRate:histogram
field count 0
field mean nan
field stddev nan
field sum 0
field sqrsum 0
field min nan
field max nan
attr source  symbolErrorRate
attr title  "Symbol error rate, histogram"
bin	-INF	0
bin	-0.5	0
bin	-0.46666666666667	0
bin	-0.43333333333333	0
bin	-0.4	0
bin	-0.36666666666667	0
bin	-0.33333333333333	0
bin	-0.3	0
bin	-0.26666666666667	0
bin	-0.23333333333333	0
bin	-0.2	0
bin	-0.16666666666667	0
bin	-0.13333333333333	0
bin	-0.1	0
bin	-0.066666666666667	0
bin	-0.033333333333333	0
bin	0	0
bin	0.033333333333333	0
bin	0.066666666666667	0
bin	0.1	0
bin	0.13333333333333	0
bin	0.16666666666667	0
bin	0.2	0
bin	0.23333333333333	0
bin	0.26666666666667	0
bin	0.3	0
bin	0.33333333333333	0
bin	0.36666666666667	0
bin	0.4	0
bin	0.43333333333333	0
bin	0.46666666666667	0
bin	0.5	0
statistic scenarioPRJP1.node[72].wlan.radio 	bitErrorRate:histogram
field count 0
field mean nan
field stddev nan
field sum 0
field sqrsum 0
field min nan
field max nan
attr source  bitErrorRate
attr title  "Bit error rate, histogram"
bin	-INF	0
bin	-0.5	0
bin	-0.46666666666667	0
bin	-0.43333333333333	0
bin	-0.4	0
bin	-0.36666666666667	0
bin	-0.33333333333333	0
bin	-0.3	0
bin	-0.26666666666667	0
bin	-0.23333333333333	0
bin	-0.2	0
bin	-0.16666666666667	0
bin	-0.13333333333333	0
bin	-0.1	0
bin	-0.066666666666667	0
bin	-0.033333333333333	0
bin	0	0
bin	0.033333333333333	0
bin	0.066666666666667	0
bin	0.1	0
bin	0.13333333333333	0
bin	0.16666666666667	0
bin	0.2	0
bin	0.23333333333333	0
bin	0.26666666666667	0
bin	0.3	0
bin	0.33333333333333	0
bin	0.36666666666667	0
bin	0.4	0
bin	0.43333333333333	0
bin	0.46666666666667	0
bin	0.5	0
statistic scenarioPRJP1.node[72].wlan.radio 	packetErrorRate:histogram
field count 102493
field mean 0.47175889000101
field stddev 0.48840820381173
field sum 48351.983912874
field sqrsum 47259.183708433
field min 0
field max 1
attr source  packetErrorRate
attr title  "Packet error rate, histogram"
bin	-INF	0
bin	-0.5	0
bin	-0.43333333333333	0
bin	-0.36666666666667	0
bin	-0.3	0
bin	-0.23333333333333	0
bin	-0.16666666666667	0
bin	-0.1	0
bin	-0.033333333333333	49679
bin	0.033333333333333	1737
bin	0.1	946
bin	0.16666666666667	587
bin	0.23333333333333	489
bin	0.3	408
bin	0.36666666666667	336
bin	0.43333333333333	311
bin	0.5	296
bin	0.56666666666667	273
bin	0.63333333333333	291
bin	0.7	264
bin	0.76666666666667	330
bin	0.83333333333333	409
bin	0.9	628
bin	0.96666666666667	45509
bin	1.0333333333333	0
bin	1.1	0
bin	1.1666666666667	0
bin	1.2333333333333	0
bin	1.3	0
bin	1.3666666666667	0
bin	1.4333333333333	0
bin	1.5	0
statistic scenarioPRJP1.node[72].wlan.radio 	minSNIR:histogram
field count 102493
field mean 131.20407118073
field stddev 4180.6170312862
field sum 13447498.867527
field sqrsum 1793074319262.3
field min 8.1097608088658e-05
field max 946882.34744662
attr source  minSNIR
attr title  "Min SNIR, histogram"
bin	-INF	0
bin	-59.469437555978	0
bin	-51.538883272507	0
bin	-43.608328989036	0
bin	-35.677774705565	0
bin	-27.747220422094	0
bin	-19.816666138623	0
bin	-11.886111855153	0
bin	-3.9555575716818	55228
bin	3.9749967117891	20295
bin	11.90555099526	6513
bin	19.836105278731	3579
bin	27.766659562202	2179
bin	35.697213845672	1543
bin	43.627768129143	1179
bin	51.558322412614	883
bin	59.488876696085	800
bin	67.419430979556	591
bin	75.349985263026	549
bin	83.280539546497	440
bin	91.211093829968	449
bin	99.141648113439	337
bin	107.07220239691	333
bin	115.00275668038	303
bin	122.93331096385	276
bin	130.86386524732	319
bin	138.79441953079	242
bin	146.72497381426	236
bin	154.65552809773	209
bin	162.58608238121	174
bin	170.51663666468	217
bin	178.44719094815	5619
scalar scenarioPRJP1.node[72].lo0.lo 	droppedPkBitError:count 	0
attr interpolationmode  none
attr source  dropPkBitError
attr title  "packets dropped/bit error, count"
scalar scenarioPRJP1.node[72].lo0.lo 	droppedPkBitError:sum(packetBytes) 	0
attr interpolationmode  none
attr source  dropPkBitError
attr title  "packets dropped/bit error, sum(packetBytes)"
scalar scenarioPRJP1.node[72].lo0.lo 	rcvdPkFromHL:count 	15
attr interpolationmode  none
attr source  packetReceivedFromUpper
attr title  "packets received from higher layer, count"
scalar scenarioPRJP1.node[72].lo0.lo 	rcvdPkFromHL:sum(packetBytes) 	7800
attr interpolationmode  none
attr source  packetReceivedFromUpper
attr title  "packets received from higher layer, sum(packetBytes)"
scalar scenarioPRJP1.node[72].lo0.lo 	passedUpPk:count 	15
attr interpolationmode  none
attr source  packetSentToUpper
attr title  "packets passed to higher layer, count"
scalar scenarioPRJP1.node[72].lo0.lo 	passedUpPk:sum(packetBytes) 	7800
attr interpolationmode  none
attr source  packetSentToUpper
attr title  "packets passed to higher layer, sum(packetBytes)"
scalar scenarioPRJP1.node[53].app 	"Total sent" 	381
scalar scenarioPRJP1.node[53].app 	"Total received" 	19
scalar scenarioPRJP1.node[53].app 	"Total deleted" 	0
scalar scenarioPRJP1.node[53].app 	dropPk:count 	0
attr interpolationmode  none
attr source  dropPk
attr title  "packets dropped, count"
scalar scenarioPRJP1.node[53].app 	dropPk:sum(packetBytes) 	0
attr interpolationmode  none
attr source  dropPk
attr title  "packets dropped, sum(packetBytes)"
scalar scenarioPRJP1.node[53].app 	outOfOrderPk:count 	2
attr interpolationmode  none
attr source  outOfOrderPk
attr title  "packets received out of order, count"
scalar scenarioPRJP1.node[53].app 	outOfOrderPk:sum(packetBytes) 	1024
attr interpolationmode  none
attr source  outOfOrderPk
attr title  "packets received out of order, sum(packetBytes)"
scalar scenarioPRJP1.node[53].app 	rcvdPk:count 	19
attr interpolationmode  none
attr source  rcvdPk
attr title  "packets received, count"
scalar scenarioPRJP1.node[53].app 	rcvdPk:sum(packetBytes) 	9728
attr interpolationmode  none
attr source  rcvdPk
attr title  "packets received, sum(packetBytes)"
statistic scenarioPRJP1.node[53].app 	endToEndDelay:histogram
field count 19
field mean 1.0600657444245
field stddev 1.4658972235796
field sum 20.141249144066
field sqrsum 60.030432329316
field min 0.013949748387
field max 5.361239143041
attr interpolationmode  none
attr source  messageAge(rcvdPk)
attr title  "delay, histogram"
attr unit  s
bin	-INF	0
bin	-2.65969494894	0
bin	-2.3032089892964	0
bin	-1.9467230296528	0
bin	-1.5902370700092	0
bin	-1.2337511103656	0
bin	-0.877265150722	0
bin	-0.5207791910784	0
bin	-0.1642932314348	8
bin	0.1921927282088	3
bin	0.5486786878524	0
bin	0.905164647496	1
bin	1.2616506071396	2
bin	1.6181365667832	2
bin	1.9746225264268	1
bin	2.3311084860704	0
bin	2.687594445714	0
bin	3.0440804053576	0
bin	3.4005663650012	0
bin	3.7570523246448	1
bin	4.1135382842884	0
bin	4.470024243932	0
bin	4.8265102035756	0
bin	5.1829961632192	1
bin	5.5394821228628	0
bin	5.8959680825064	0
bin	6.25245404215	0
bin	6.6089400017936	0
bin	6.9654259614372	0
bin	7.3219119210808	0
bin	7.6783978807244	0
bin	8.034883840368	0
scalar scenarioPRJP1.node[53].app 	sentPk:count 	381
attr interpolationmode  none
attr source  sentPk
attr title  "packets sent, count"
scalar scenarioPRJP1.node[53].app 	sentPk:sum(packetBytes) 	195072
attr interpolationmode  none
attr source  sentPk
attr title  "packets sent, sum(packetBytes)"
scalar scenarioPRJP1.node[53].udp 	droppedPkBadChecksum:count 	0
attr interpolationmode  none
attr title  "packets dropped (checksum error), count"
scalar scenarioPRJP1.node[53].udp 	droppedPkWrongPort:count 	0
attr interpolationmode  none
attr title  "packets dropped (wrong port), count"
scalar scenarioPRJP1.node[53].udp 	passedUpPk:count 	21
attr interpolationmode  none
attr title  "packets passed up, count"
scalar scenarioPRJP1.node[53].udp 	rcvdPk:count 	21
attr interpolationmode  none
attr source  rcvdPk
attr title  "packets received, count"
scalar scenarioPRJP1.node[53].udp 	rcvdPk:sum(packetBytes) 	10920
attr interpolationmode  none
attr source  rcvdPk
attr title  "packets received, sum(packetBytes)"
scalar scenarioPRJP1.node[53].udp 	sentPk:count 	381
attr interpolationmode  none
attr source  sentPk
attr title  "packets sent, count"
scalar scenarioPRJP1.node[53].udp 	sentPk:sum(packetBytes) 	198120
attr interpolationmode  none
attr source  sentPk
attr title  "packets sent, sum(packetBytes)"
scalar scenarioPRJP1.node[53].networkLayer.arp 	failedARPResolution:count 	118
attr title  "ARP failed resolutions, count"
scalar scenarioPRJP1.node[53].networkLayer.arp 	completedARPResolution:count 	1695
attr title  "ARP completed resolutions, count"
scalar scenarioPRJP1.node[53].networkLayer.arp 	initiatedARPResolution:count 	149
attr title  "ARP initiated resolutions, count"
scalar scenarioPRJP1.node[53].networkLayer.arp 	sentReply:count 	10
attr title  "ARP replies sent, count"
scalar scenarioPRJP1.node[53].networkLayer.arp 	sentReq:count 	407
attr title  "ARP request sent, count"
scalar scenarioPRJP1.node[53].mobility 	startTime 	4.9
scalar scenarioPRJP1.node[53].mobility 	totalTime 	157.8
scalar scenarioPRJP1.node[53].mobility 	stopTime 	162.8
scalar scenarioPRJP1.node[53].mobility 	minSpeed 	2.4757495438102e-13
scalar scenarioPRJP1.node[53].mobility 	maxSpeed 	17.433752215562
scalar scenarioPRJP1.node[53].mobility 	totalDistance 	1450.6868506717
scalar scenarioPRJP1.node[53].mobility 	totalCO2Emission 	408.23272295932
scalar scenarioPRJP1.node[53].wlan.mgmt 	dataQueueLen:max 	26
attr interpolationmode  sample-hold
attr title  "data queue length, max"
scalar scenarioPRJP1.node[53].wlan.mgmt 	dataQueueLen:timeavg 	0.12785159713951
attr interpolationmode  sample-hold
attr title  "data queue length, timeavg"
scalar scenarioPRJP1.node[53].wlan.mgmt 	dropPkByQueue:count 	0
attr interpolationmode  none
attr source  dropPkByQueue
attr title  "packets dropped by queue, count"
scalar scenarioPRJP1.node[53].wlan.mgmt 	dropPkByQueue:sum(packetBytes) 	0
attr interpolationmode  none
attr source  dropPkByQueue
attr title  "packets dropped by queue, sum(packetBytes)"
scalar scenarioPRJP1.node[53].wlan.mac 	"number of received packets" 	2261
scalar scenarioPRJP1.node[53].wlan.mac 	"number of collisions" 	48156
scalar scenarioPRJP1.node[53].wlan.mac 	"number of internal collisions" 	0
scalar scenarioPRJP1.node[53].wlan.mac 	"number of retry for AC 0" 	7505
scalar scenarioPRJP1.node[53].wlan.mac 	"number of retry for AC 1" 	0
scalar scenarioPRJP1.node[53].wlan.mac 	"number of retry for AC 2" 	0
scalar scenarioPRJP1.node[53].wlan.mac 	"number of retry for AC 3" 	0
scalar scenarioPRJP1.node[53].wlan.mac 	"sent and received bits" 	5253344
scalar scenarioPRJP1.node[53].wlan.mac 	"sent packet within AC 0" 	1891
scalar scenarioPRJP1.node[53].wlan.mac 	"sent packet within AC 1" 	0
scalar scenarioPRJP1.node[53].wlan.mac 	"sent packet within AC 2" 	0
scalar scenarioPRJP1.node[53].wlan.mac 	"sent packet within AC 3" 	0
scalar scenarioPRJP1.node[53].wlan.mac 	"sent in TXOP " 	0
scalar scenarioPRJP1.node[53].wlan.mac 	"sentWithoutRetry AC 0" 	1416
scalar scenarioPRJP1.node[53].wlan.mac 	"sentWithoutRetry AC 1" 	0
scalar scenarioPRJP1.node[53].wlan.mac 	"sentWithoutRetry AC 2" 	0
scalar scenarioPRJP1.node[53].wlan.mac 	"sentWithoutRetry AC 3" 	0
scalar scenarioPRJP1.node[53].wlan.mac 	"numGivenUp AC 0" 	1106
scalar scenarioPRJP1.node[53].wlan.mac 	"numGivenUp AC 1" 	0
scalar scenarioPRJP1.node[53].wlan.mac 	"numGivenUp AC 2" 	0
scalar scenarioPRJP1.node[53].wlan.mac 	"numGivenUp AC 3" 	0
scalar scenarioPRJP1.node[53].wlan.mac 	"numDropped AC 0" 	114
scalar scenarioPRJP1.node[53].wlan.mac 	"numDropped AC 1" 	0
scalar scenarioPRJP1.node[53].wlan.mac 	"numDropped AC 2" 	0
scalar scenarioPRJP1.node[53].wlan.mac 	"numDropped AC 3" 	0
scalar scenarioPRJP1.node[53].wlan.mac 	rcvdPkFromLL:count 	118320
attr interpolationmode  none
attr source  packetReceivedFromLower
attr title  "packets received from lower layer, count"
scalar scenarioPRJP1.node[53].wlan.mac 	rcvdPkFromLL:sum(packetBytes) 	24954398
attr interpolationmode  none
attr source  packetReceivedFromLower
attr title  "packets received from lower layer, sum(packetBytes)"
scalar scenarioPRJP1.node[53].wlan.mac 	sentDownPk:count 	15383
attr interpolationmode  none
attr source  packetSentToLower
attr title  "packets sent to lower layer, count"
scalar scenarioPRJP1.node[53].wlan.mac 	sentDownPk:sum(packetBytes) 	3314970
attr interpolationmode  none
attr source  packetSentToLower
attr title  "packets sent to lower layer, sum(packetBytes)"
scalar scenarioPRJP1.node[53].wlan.mac 	rcvdPkFromHL:count 	5734
attr interpolationmode  none
attr source  packetReceivedFromUpper
attr title  "packets received from higher layer, count"
scalar scenarioPRJP1.node[53].wlan.mac 	rcvdPkFromHL:sum(packetBytes) 	1022500
attr interpolationmode  none
attr source  packetReceivedFromUpper
attr title  "packets received from higher layer, sum(packetBytes)"
scalar scenarioPRJP1.node[53].wlan.mac 	passedUpPk:count 	14140
attr interpolationmode  none
attr source  packetSentToUpper
attr title  "packets passed to higher layer, count"
scalar scenarioPRJP1.node[53].wlan.mac 	passedUpPk:sum(packetBytes) 	1375096
attr interpolationmode  none
attr source  packetSentToUpper
attr title  "packets passed to higher layer, sum(packetBytes)"
statistic scenarioPRJP1.node[53].wlan.radio 	radioChannel:histogram
field count 1
field mean 3
field stddev nan
field sum 3
field sqrsum 9
field min 3
field max 3
attr interpolationmode  sample-hold
attr source  radioChannelChanged
attr title  "Radio channel, histogram"
bin	-INF	0
bin	2	0
bin	3	1
bin	4	0
scalar scenarioPRJP1.node[53].wlan.radio 	transmissionState:count 	61532
attr interpolationmode  sample-hold
attr source  transmissionStateChanged
attr title  "Radio transmission state, count"
scalar scenarioPRJP1.node[53].wlan.radio 	receptionState:count 	293738
attr interpolationmode  sample-hold
attr source  receptionStateChanged
attr title  "Radio reception state, count"
scalar scenarioPRJP1.node[53].wlan.radio 	radioMode:count 	30768
attr interpolationmode  sample-hold
attr source  radioModeChanged
attr title  "Radio mode, count"
statistic scenarioPRJP1.node[53].wlan.radio 	symbolErrorRate:histogram
field count 0
field mean nan
field stddev nan
field sum 0
field sqrsum 0
field min nan
field max nan
attr source  symbolErrorRate
attr title  "Symbol error rate, histogram"
bin	-INF	0
bin	-0.5	0
bin	-0.46666666666667	0
bin	-0.43333333333333	0
bin	-0.4	0
bin	-0.36666666666667	0
bin	-0.33333333333333	0
bin	-0.3	0
bin	-0.26666666666667	0
bin	-0.23333333333333	0
bin	-0.2	0
bin	-0.16666666666667	0
bin	-0.13333333333333	0
bin	-0.1	0
bin	-0.066666666666667	0
bin	-0.033333333333333	0
bin	0	0
bin	0.033333333333333	0
bin	0.066666666666667	0
bin	0.1	0
bin	0.13333333333333	0
bin	0.16666666666667	0
bin	0.2	0
bin	0.23333333333333	0
bin	0.26666666666667	0
bin	0.3	0
bin	0.33333333333333	0
bin	0.36666666666667	0
bin	0.4	0
bin	0.43333333333333	0
bin	0.46666666666667	0
bin	0.5	0
statistic scenarioPRJP1.node[53].wlan.radio 	bitErrorRate:histogram
field count 0
field mean nan
field stddev nan
field sum 0
field sqrsum 0
field min nan
field max nan
attr source  bitErrorRate
attr title  "Bit error rate, histogram"
bin	-INF	0
bin	-0.5	0
bin	-0.46666666666667	0
bin	-0.43333333333333	0
bin	-0.4	0
bin	-0.36666666666667	0
bin	-0.33333333333333	0
bin	-0.3	0
bin	-0.26666666666667	0
bin	-0.23333333333333	0
bin	-0.2	0
bin	-0.16666666666667	0
bin	-0.13333333333333	0
bin	-0.1	0
bin	-0.066666666666667	0
bin	-0.033333333333333	0
bin	0	0
bin	0.033333333333333	0
bin	0.066666666666667	0
bin	0.1	0
bin	0.13333333333333	0
bin	0.16666666666667	0
bin	0.2	0
bin	0.23333333333333	0
bin	0.26666666666667	0
bin	0.3	0
bin	0.33333333333333	0
bin	0.36666666666667	0
bin	0.4	0
bin	0.43333333333333	0
bin	0.46666666666667	0
bin	0.5	0
statistic scenarioPRJP1.node[53].wlan.radio 	packetErrorRate:histogram
field count 118320
field mean 0.38746405385833
field stddev 0.47958569144889
field sum 45844.746852518
field sqrsum 44976.849622708
field min 0
field max 1
attr source  packetErrorRate
attr title  "Packet error rate, histogram"
bin	-INF	0
bin	-0.5	0
bin	-0.43333333333333	0
bin	-0.36666666666667	0
bin	-0.3	0
bin	-0.23333333333333	0
bin	-0.16666666666667	0
bin	-0.1	0
bin	-0.033333333333333	69011
bin	0.033333333333333	1375
bin	0.1	661
bin	0.16666666666667	482
bin	0.23333333333333	376
bin	0.3	317
bin	0.36666666666667	270
bin	0.43333333333333	247
bin	0.5	228
bin	0.56666666666667	223
bin	0.63333333333333	216
bin	0.7	230
bin	0.76666666666667	285
bin	0.83333333333333	332
bin	0.9	533
bin	0.96666666666667	43534
bin	1.0333333333333	0
bin	1.1	0
bin	1.1666666666667	0
bin	1.2333333333333	0
bin	1.3	0
bin	1.3666666666667	0
bin	1.4333333333333	0
bin	1.5	0
statistic scenarioPRJP1.node[53].wlan.radio 	minSNIR:histogram
field count 118320
field mean 209.62495362289
field stddev 1530.4537044145
field sum 24802824.512661
field sqrsum 282336528862.88
field min 9.0697432210891e-05
field max 146324.90809451
attr source  minSNIR
attr title  "Min SNIR, histogram"
bin	-INF	0
bin	-7372.1047538802	0
bin	-6389.1571603556	0
bin	-5406.209566831	0
bin	-4423.2619733064	0
bin	-3440.3143797819	0
bin	-2457.3667862573	0
bin	-1474.4191927327	0
bin	-491.47159920814	108697
bin	491.47599431644	6428
bin	1474.423587841	1521
bin	2457.3711813656	634
bin	3440.3187748902	296
bin	4423.2663684147	194
bin	5406.2139619393	116
bin	6389.1615554639	79
bin	7372.1091489885	59
bin	8355.056742513	49
bin	9338.0043360376	24
bin	10320.951929562	21
bin	11303.899523087	28
bin	12286.847116611	20
bin	13269.794710136	16
bin	14252.74230366	9
bin	15235.689897185	16
bin	16218.63749071	7
bin	17201.585084234	10
bin	18184.532677759	8
bin	19167.480271283	5
bin	20150.427864808	9
bin	21133.375458333	5
bin	22116.323051857	69
scalar scenarioPRJP1.node[53].lo0.lo 	droppedPkBitError:count 	0
attr interpolationmode  none
attr source  dropPkBitError
attr title  "packets dropped/bit error, count"
scalar scenarioPRJP1.node[53].lo0.lo 	droppedPkBitError:sum(packetBytes) 	0
attr interpolationmode  none
attr source  dropPkBitError
attr title  "packets dropped/bit error, sum(packetBytes)"
scalar scenarioPRJP1.node[53].lo0.lo 	rcvdPkFromHL:count 	21
attr interpolationmode  none
attr source  packetReceivedFromUpper
attr title  "packets received from higher layer, count"
scalar scenarioPRJP1.node[53].lo0.lo 	rcvdPkFromHL:sum(packetBytes) 	10920
attr interpolationmode  none
attr source  packetReceivedFromUpper
attr title  "packets received from higher layer, sum(packetBytes)"
scalar scenarioPRJP1.node[53].lo0.lo 	passedUpPk:count 	21
attr interpolationmode  none
attr source  packetSentToUpper
attr title  "packets passed to higher layer, count"
scalar scenarioPRJP1.node[53].lo0.lo 	passedUpPk:sum(packetBytes) 	10920
attr interpolationmode  none
attr source  packetSentToUpper
attr title  "packets passed to higher layer, sum(packetBytes)"
scalar scenarioPRJP1.node[32].app 	"Total sent" 	616
scalar scenarioPRJP1.node[32].app 	"Total received" 	28
scalar scenarioPRJP1.node[32].app 	"Total deleted" 	0
scalar scenarioPRJP1.node[32].app 	dropPk:count 	0
attr interpolationmode  none
attr source  dropPk
attr title  "packets dropped, count"
scalar scenarioPRJP1.node[32].app 	dropPk:sum(packetBytes) 	0
attr interpolationmode  none
attr source  dropPk
attr title  "packets dropped, sum(packetBytes)"
scalar scenarioPRJP1.node[32].app 	outOfOrderPk:count 	2
attr interpolationmode  none
attr source  outOfOrderPk
attr title  "packets received out of order, count"
scalar scenarioPRJP1.node[32].app 	outOfOrderPk:sum(packetBytes) 	1024
attr interpolationmode  none
attr source  outOfOrderPk
attr title  "packets received out of order, sum(packetBytes)"
scalar scenarioPRJP1.node[32].app 	rcvdPk:count 	28
attr interpolationmode  none
attr source  rcvdPk
attr title  "packets received, count"
scalar scenarioPRJP1.node[32].app 	rcvdPk:sum(packetBytes) 	14336
attr interpolationmode  none
attr source  rcvdPk
attr title  "packets received, sum(packetBytes)"
statistic scenarioPRJP1.node[32].app 	endToEndDelay:histogram
field count 28
field mean 0.65035425400107
field stddev 1.3214782070213
field sum 18.20991911203
field sqrsum 58.993123953594
field min 0.005101690759
field max 6.30461900163
attr interpolationmode  none
attr source  messageAge(rcvdPk)
attr title  "delay, histogram"
attr unit  s
bin	-INF	0
bin	-3.1446569646765	0
bin	-2.7246891439518	0
bin	-2.304721323227	0
bin	-1.8847535025023	0
bin	-1.4647856817776	0
bin	-1.0448178610528	0
bin	-0.6248500403281	0
bin	-0.20488221960337	18
bin	0.21508560112137	3
bin	0.6350534218461	1
bin	1.0550212425708	1
bin	1.4749890632956	2
bin	1.8949568840203	1
bin	2.314924704745	1
bin	2.7348925254698	0
bin	3.1548603461945	0
bin	3.5748281669192	0
bin	3.994795987644	0
bin	4.4147638083687	0
bin	4.8347316290934	0
bin	5.2546994498182	0
bin	5.6746672705429	0
bin	6.0946350912676	1
bin	6.5146029119924	0
bin	6.9345707327171	0
bin	7.3545385534418	0
bin	7.7745063741666	0
bin	8.1944741948913	0
bin	8.614442015616	0
bin	9.0344098363408	0
bin	9.4543776570655	0
scalar scenarioPRJP1.node[32].app 	sentPk:count 	616
attr interpolationmode  none
attr source  sentPk
attr title  "packets sent, count"
scalar scenarioPRJP1.node[32].app 	sentPk:sum(packetBytes) 	315392
attr interpolationmode  none
attr source  sentPk
attr title  "packets sent, sum(packetBytes)"
scalar scenarioPRJP1.node[32].udp 	droppedPkBadChecksum:count 	0
attr interpolationmode  none
attr title  "packets dropped (checksum error), count"
scalar scenarioPRJP1.node[32].udp 	droppedPkWrongPort:count 	0
attr interpolationmode  none
attr title  "packets dropped (wrong port), count"
scalar scenarioPRJP1.node[32].udp 	passedUpPk:count 	30
attr interpolationmode  none
attr title  "packets passed up, count"
scalar scenarioPRJP1.node[32].udp 	rcvdPk:count 	30
attr interpolationmode  none
attr source  rcvdPk
attr title  "packets received, count"
scalar scenarioPRJP1.node[32].udp 	rcvdPk:sum(packetBytes) 	15600
attr interpolationmode  none
attr source  rcvdPk
attr title  "packets received, sum(packetBytes)"
scalar scenarioPRJP1.node[32].udp 	sentPk:count 	616
attr interpolationmode  none
attr source  sentPk
attr title  "packets sent, count"
scalar scenarioPRJP1.node[32].udp 	sentPk:sum(packetBytes) 	320320
attr interpolationmode  none
attr source  sentPk
attr title  "packets sent, sum(packetBytes)"
scalar scenarioPRJP1.node[32].networkLayer.arp 	failedARPResolution:count 	271
attr title  "ARP failed resolutions, count"
scalar scenarioPRJP1.node[32].networkLayer.arp 	completedARPResolution:count 	2201
attr title  "ARP completed resolutions, count"
scalar scenarioPRJP1.node[32].networkLayer.arp 	initiatedARPResolution:count 	313
attr title  "ARP initiated resolutions, count"
scalar scenarioPRJP1.node[32].networkLayer.arp 	sentReply:count 	14
attr title  "ARP replies sent, count"
scalar scenarioPRJP1.node[32].networkLayer.arp 	sentReq:count 	893
attr title  "ARP request sent, count"
scalar scenarioPRJP1.node[32].mobility 	startTime 	2.5
scalar scenarioPRJP1.node[32].mobility 	totalTime 	245
scalar scenarioPRJP1.node[32].mobility 	stopTime 	247.6
scalar scenarioPRJP1.node[32].mobility 	minSpeed 	2.4775819124834e-13
scalar scenarioPRJP1.node[32].mobility 	maxSpeed 	16.730174107778
scalar scenarioPRJP1.node[32].mobility 	totalDistance 	2234.6446810321
scalar scenarioPRJP1.node[32].mobility 	totalCO2Emission 	628.61802943765
scalar scenarioPRJP1.node[32].wlan.mgmt 	dataQueueLen:max 	4
attr interpolationmode  sample-hold
attr title  "data queue length, max"
scalar scenarioPRJP1.node[32].wlan.mgmt 	dataQueueLen:timeavg 	0
attr interpolationmode  sample-hold
attr title  "data queue length, timeavg"
scalar scenarioPRJP1.node[32].wlan.mgmt 	dropPkByQueue:count 	0
attr interpolationmode  none
attr source  dropPkByQueue
attr title  "packets dropped by queue, count"
scalar scenarioPRJP1.node[32].wlan.mgmt 	dropPkByQueue:sum(packetBytes) 	0
attr interpolationmode  none
attr source  dropPkByQueue
attr title  "packets dropped by queue, sum(packetBytes)"
scalar scenarioPRJP1.node[32].wlan.mac 	"number of received packets" 	2272
scalar scenarioPRJP1.node[32].wlan.mac 	"number of collisions" 	54843
scalar scenarioPRJP1.node[32].wlan.mac 	"number of internal collisions" 	0
scalar scenarioPRJP1.node[32].wlan.mac 	"number of retry for AC 0" 	9741
scalar scenarioPRJP1.node[32].wlan.mac 	"number of retry for AC 1" 	0
scalar scenarioPRJP1.node[32].wlan.mac 	"number of retry for AC 2" 	0
scalar scenarioPRJP1.node[32].wlan.mac 	"number of retry for AC 3" 	0
scalar scenarioPRJP1.node[32].wlan.mac 	"sent and received bits" 	4416608
scalar scenarioPRJP1.node[32].wlan.mac 	"sent packet within AC 0" 	1370
scalar scenarioPRJP1.node[32].wlan.mac 	"sent packet within AC 1" 	0
scalar scenarioPRJP1.node[32].wlan.mac 	"sent packet within AC 2" 	0
scalar scenarioPRJP1.node[32].wlan.mac 	"sent packet within AC 3" 	0
scalar scenarioPRJP1.node[32].wlan.mac 	"sent in TXOP " 	0
scalar scenarioPRJP1.node[32].wlan.mac 	"sentWithoutRetry AC 0" 	981
scalar scenarioPRJP1.node[32].wlan.mac 	"sentWithoutRetry AC 1" 	0
scalar scenarioPRJP1.node[32].wlan.mac 	"sentWithoutRetry AC 2" 	0
scalar scenarioPRJP1.node[32].wlan.mac 	"sentWithoutRetry AC 3" 	0
scalar scenarioPRJP1.node[32].wlan.mac 	"numGivenUp AC 0" 	1483
scalar scenarioPRJP1.node[32].wlan.mac 	"numGivenUp AC 1" 	0
scalar scenarioPRJP1.node[32].wlan.mac 	"numGivenUp AC 2" 	0
scalar scenarioPRJP1.node[32].wlan.mac 	"numGivenUp AC 3" 	0
scalar scenarioPRJP1.node[32].wlan.mac 	"numDropped AC 0" 	0
scalar scenarioPRJP1.node[32].wlan.mac 	"numDropped AC 1" 	0
scalar scenarioPRJP1.node[32].wlan.mac 	"numDropped AC 2" 	0
scalar scenarioPRJP1.node[32].wlan.mac 	"numDropped AC 3" 	0
scalar scenarioPRJP1.node[32].wlan.mac 	rcvdPkFromLL:count 	105504
attr interpolationmode  none
attr source  packetReceivedFromLower
attr title  "packets received from lower layer, count"
scalar scenarioPRJP1.node[32].wlan.mac 	rcvdPkFromLL:sum(packetBytes) 	24972366
attr interpolationmode  none
attr source  packetReceivedFromLower
attr title  "packets received from lower layer, sum(packetBytes)"
scalar scenarioPRJP1.node[32].wlan.mac 	sentDownPk:count 	17536
attr interpolationmode  none
attr source  packetSentToLower
attr title  "packets sent to lower layer, count"
scalar scenarioPRJP1.node[32].wlan.mac 	sentDownPk:sum(packetBytes) 	4031208
attr interpolationmode  none
attr source  packetSentToLower
attr title  "packets sent to lower layer, sum(packetBytes)"
scalar scenarioPRJP1.node[32].wlan.mac 	rcvdPkFromHL:count 	5523
attr interpolationmode  none
attr source  packetReceivedFromUpper
attr title  "packets received from higher layer, count"
scalar scenarioPRJP1.node[32].wlan.mac 	rcvdPkFromHL:sum(packetBytes) 	1006304
attr interpolationmode  none
attr source  packetReceivedFromUpper
attr title  "packets received from higher layer, sum(packetBytes)"
scalar scenarioPRJP1.node[32].wlan.mac 	passedUpPk:count 	9198
attr interpolationmode  none
attr source  packetSentToUpper
attr title  "packets passed to higher layer, count"
scalar scenarioPRJP1.node[32].wlan.mac 	passedUpPk:sum(packetBytes) 	989228
attr interpolationmode  none
attr source  packetSentToUpper
attr title  "packets passed to higher layer, sum(packetBytes)"
statistic scenarioPRJP1.node[32].wlan.radio 	radioChannel:histogram
field count 1
field mean 3
field stddev nan
field sum 3
field sqrsum 9
field min 3
field max 3
attr interpolationmode  sample-hold
attr source  radioChannelChanged
attr title  "Radio channel, histogram"
bin	-INF	0
bin	2	0
bin	3	1
bin	4	0
scalar scenarioPRJP1.node[32].wlan.radio 	transmissionState:count 	70144
attr interpolationmode  sample-hold
attr source  transmissionStateChanged
attr title  "Radio transmission state, count"
scalar scenarioPRJP1.node[32].wlan.radio 	receptionState:count 	273236
attr interpolationmode  sample-hold
attr source  receptionStateChanged
attr title  "Radio reception state, count"
scalar scenarioPRJP1.node[32].wlan.radio 	radioMode:count 	35074
attr interpolationmode  sample-hold
attr source  radioModeChanged
attr title  "Radio mode, count"
statistic scenarioPRJP1.node[32].wlan.radio 	symbolErrorRate:histogram
field count 0
field mean nan
field stddev nan
field sum 0
field sqrsum 0
field min nan
field max nan
attr source  symbolErrorRate
attr title  "Symbol error rate, histogram"
bin	-INF	0
bin	-0.5	0
bin	-0.46666666666667	0
bin	-0.43333333333333	0
bin	-0.4	0
bin	-0.36666666666667	0
bin	-0.33333333333333	0
bin	-0.3	0
bin	-0.26666666666667	0
bin	-0.23333333333333	0
bin	-0.2	0
bin	-0.16666666666667	0
bin	-0.13333333333333	0
bin	-0.1	0
bin	-0.066666666666667	0
bin	-0.033333333333333	0
bin	0	0
bin	0.033333333333333	0
bin	0.066666666666667	0
bin	0.1	0
bin	0.13333333333333	0
bin	0.16666666666667	0
bin	0.2	0
bin	0.23333333333333	0
bin	0.26666666666667	0
bin	0.3	0
bin	0.33333333333333	0
bin	0.36666666666667	0
bin	0.4	0
bin	0.43333333333333	0
bin	0.46666666666667	0
bin	0.5	0
statistic scenarioPRJP1.node[32].wlan.radio 	bitErrorRate:histogram
field count 0
field mean nan
field stddev nan
field sum 0
field sqrsum 0
field min nan
field max nan
attr source  bitErrorRate
attr title  "Bit error rate, histogram"
bin	-INF	0
bin	-0.5	0
bin	-0.46666666666667	0
bin	-0.43333333333333	0
bin	-0.4	0
bin	-0.36666666666667	0
bin	-0.33333333333333	0
bin	-0.3	0
bin	-0.26666666666667	0
bin	-0.23333333333333	0
bin	-0.2	0
bin	-0.16666666666667	0
bin	-0.13333333333333	0
bin	-0.1	0
bin	-0.066666666666667	0
bin	-0.033333333333333	0
bin	0	0
bin	0.033333333333333	0
bin	0.066666666666667	0
bin	0.1	0
bin	0.13333333333333	0
bin	0.16666666666667	0
bin	0.2	0
bin	0.23333333333333	0
bin	0.26666666666667	0
bin	0.3	0
bin	0.33333333333333	0
bin	0.36666666666667	0
bin	0.4	0
bin	0.43333333333333	0
bin	0.46666666666667	0
bin	0.5	0
statistic scenarioPRJP1.node[32].wlan.radio 	packetErrorRate:histogram
field count 105504
field mean 0.49559149581051
field stddev 0.49009035904631
field sum 52286.885173992
field sqrsum 51253.549283511
field min 0
field max 1
attr source  packetErrorRate
attr title  "Packet error rate, histogram"
bin	-INF	0
bin	-0.5	0
bin	-0.43333333333333	0
bin	-0.36666666666667	0
bin	-0.3	0
bin	-0.23333333333333	0
bin	-0.16666666666667	0
bin	-0.1	0
bin	-0.033333333333333	49061
bin	0.033333333333333	1624
bin	0.1	800
bin	0.16666666666667	571
bin	0.23333333333333	463
bin	0.3	384
bin	0.36666666666667	338
bin	0.43333333333333	292
bin	0.5	289
bin	0.56666666666667	274
bin	0.63333333333333	283
bin	0.7	263
bin	0.76666666666667	297
bin	0.83333333333333	373
bin	0.9	594
bin	0.96666666666667	49598
bin	1.0333333333333	0
bin	1.1	0
bin	1.1666666666667	0
bin	1.2333333333333	0
bin	1.3	0
bin	1.3666666666667	0
bin	1.4333333333333	0
bin	1.5	0
statistic scenarioPRJP1.node[32].wlan.radio 	minSNIR:histogram
field count 105504
field mean 748.18844939727
field stddev 14707.455885039
field sum 78936874.16521
field sqrsum 22880335368652
field min 9.371685845398e-05
field max 2141006.4514168
attr source  minSNIR
attr title  "Min SNIR, histogram"
bin	-INF	0
bin	-555.67642760305	0
bin	-481.5801637105	0
bin	-407.48389981796	0
bin	-333.38763592541	0
bin	-259.29137203287	0
bin	-185.19510814032	0
bin	-111.09884424778	0
bin	-37.002580355231	85238
bin	37.093683537315	5188
bin	111.18994742986	2960
bin	185.28621132241	1790
bin	259.38247521495	1188
bin	333.4787391075	868
bin	407.57500300004	710
bin	481.67126689259	596
bin	555.76753078513	495
bin	629.86379467768	444
bin	703.96005857022	383
bin	778.05632246277	314
bin	852.15258635532	335
bin	926.24885024786	263
bin	1000.3451141404	233
bin	1074.441378033	216
bin	1148.5376419255	190
bin	1222.633905818	176
bin	1296.7301697106	162
bin	1370.8264336031	146
bin	1444.9226974957	156
bin	1519.0189613882	128
bin	1593.1152252808	122
bin	1667.2114891733	3203
scalar scenarioPRJP1.node[32].lo0.lo 	droppedPkBitError:count 	0
attr interpolationmode  none
attr source  dropPkBitError
attr title  "packets dropped/bit error, count"
scalar scenarioPRJP1.node[32].lo0.lo 	droppedPkBitError:sum(packetBytes) 	0
attr interpolationmode  none
attr source  dropPkBitError
attr title  "packets dropped/bit error, sum(packetBytes)"
scalar scenarioPRJP1.node[32].lo0.lo 	rcvdPkFromHL:count 	30
attr interpolationmode  none
attr source  packetReceivedFromUpper
attr title  "packets received from higher layer, count"
scalar scenarioPRJP1.node[32].lo0.lo 	rcvdPkFromHL:sum(packetBytes) 	15600
attr interpolationmode  none
attr source  packetReceivedFromUpper
attr title  "packets received from higher layer, sum(packetBytes)"
scalar scenarioPRJP1.node[32].lo0.lo 	passedUpPk:count 	30
attr interpolationmode  none
attr source  packetSentToUpper
attr title  "packets passed to higher layer, count"
scalar scenarioPRJP1.node[32].lo0.lo 	passedUpPk:sum(packetBytes) 	15600
attr interpolationmode  none
attr source  packetSentToUpper
attr title  "packets passed to higher layer, sum(packetBytes)"
scalar scenarioPRJP1.node[82].app 	"Total sent" 	724
scalar scenarioPRJP1.node[82].app 	"Total received" 	39
scalar scenarioPRJP1.node[82].app 	"Total deleted" 	0
scalar scenarioPRJP1.node[82].app 	dropPk:count 	0
attr interpolationmode  none
attr source  dropPk
attr title  "packets dropped, count"
scalar scenarioPRJP1.node[82].app 	dropPk:sum(packetBytes) 	0
attr interpolationmode  none
attr source  dropPk
attr title  "packets dropped, sum(packetBytes)"
scalar scenarioPRJP1.node[82].app 	outOfOrderPk:count 	14
attr interpolationmode  none
attr source  outOfOrderPk
attr title  "packets received out of order, count"
scalar scenarioPRJP1.node[82].app 	outOfOrderPk:sum(packetBytes) 	7168
attr interpolationmode  none
attr source  outOfOrderPk
attr title  "packets received out of order, sum(packetBytes)"
scalar scenarioPRJP1.node[82].app 	rcvdPk:count 	39
attr interpolationmode  none
attr source  rcvdPk
attr title  "packets received, count"
scalar scenarioPRJP1.node[82].app 	rcvdPk:sum(packetBytes) 	19968
attr interpolationmode  none
attr source  rcvdPk
attr title  "packets received, sum(packetBytes)"
statistic scenarioPRJP1.node[82].app 	endToEndDelay:histogram
field count 39
field mean 0.65508324499338
field stddev 1.2703205166977
field sum 25.548246554742
field sqrsum 78.057368432408
field min 0.003092081532
field max 4.865012574218
attr interpolationmode  none
attr source  messageAge(rcvdPk)
attr title  "delay, histogram"
attr unit  s
bin	-INF	0
bin	-2.427868164811	0
bin	-2.1037401319653	0
bin	-1.7796120991195	0
bin	-1.4554840662738	0
bin	-1.1313560334281	0
bin	-0.80722800058233	0
bin	-0.4830999677366	0
bin	-0.15897193489087	27
bin	0.16515609795487	2
bin	0.4892841308006	3
bin	0.81341216364633	1
bin	1.1375401964921	0
bin	1.4616682293378	1
bin	1.7857962621835	0
bin	2.1099242950293	0
bin	2.434052327875	0
bin	2.7581803607207	1
bin	3.0823083935665	1
bin	3.4064364264122	1
bin	3.7305644592579	0
bin	4.0546924921037	1
bin	4.3788205249494	0
bin	4.7029485577951	1
bin	5.0270765906409	0
bin	5.3512046234866	0
bin	5.6753326563323	0
bin	5.9994606891781	0
bin	6.3235887220238	0
bin	6.6477167548695	0
bin	6.9718447877153	0
bin	7.295972820561	0
scalar scenarioPRJP1.node[82].app 	sentPk:count 	724
attr interpolationmode  none
attr source  sentPk
attr title  "packets sent, count"
scalar scenarioPRJP1.node[82].app 	sentPk:sum(packetBytes) 	370688
attr interpolationmode  none
attr source  sentPk
attr title  "packets sent, sum(packetBytes)"
scalar scenarioPRJP1.node[82].udp 	droppedPkBadChecksum:count 	0
attr interpolationmode  none
attr title  "packets dropped (checksum error), count"
scalar scenarioPRJP1.node[82].udp 	droppedPkWrongPort:count 	0
attr interpolationmode  none
attr title  "packets dropped (wrong port), count"
scalar scenarioPRJP1.node[82].udp 	passedUpPk:count 	53
attr interpolationmode  none
attr title  "packets passed up, count"
scalar scenarioPRJP1.node[82].udp 	rcvdPk:count 	53
attr interpolationmode  none
attr source  rcvdPk
attr title  "packets received, count"
scalar scenarioPRJP1.node[82].udp 	rcvdPk:sum(packetBytes) 	27560
attr interpolationmode  none
attr source  rcvdPk
attr title  "packets received, sum(packetBytes)"
scalar scenarioPRJP1.node[82].udp 	sentPk:count 	724
attr interpolationmode  none
attr source  sentPk
attr title  "packets sent, count"
scalar scenarioPRJP1.node[82].udp 	sentPk:sum(packetBytes) 	376480
attr interpolationmode  none
attr source  sentPk
attr title  "packets sent, sum(packetBytes)"
scalar scenarioPRJP1.node[82].networkLayer.arp 	failedARPResolution:count 	144
attr title  "ARP failed resolutions, count"
scalar scenarioPRJP1.node[82].networkLayer.arp 	completedARPResolution:count 	2690
attr title  "ARP completed resolutions, count"
scalar scenarioPRJP1.node[82].networkLayer.arp 	initiatedARPResolution:count 	196
attr title  "ARP initiated resolutions, count"
scalar scenarioPRJP1.node[82].networkLayer.arp 	sentReply:count 	27
attr title  "ARP replies sent, count"
scalar scenarioPRJP1.node[82].networkLayer.arp 	sentReq:count 	524
attr title  "ARP request sent, count"
scalar scenarioPRJP1.node[82].mobility 	startTime 	9.7
scalar scenarioPRJP1.node[82].mobility 	totalTime 	274.5
scalar scenarioPRJP1.node[82].mobility 	stopTime 	284.3
scalar scenarioPRJP1.node[82].mobility 	minSpeed 	2.4754896377575e-13
scalar scenarioPRJP1.node[82].mobility 	maxSpeed 	16.731955186657
scalar scenarioPRJP1.node[82].mobility 	totalDistance 	2205.8539994571
scalar scenarioPRJP1.node[82].mobility 	totalCO2Emission 	683.07819325646
scalar scenarioPRJP1.node[82].wlan.mgmt 	dataQueueLen:max 	65
attr interpolationmode  sample-hold
attr title  "data queue length, max"
scalar scenarioPRJP1.node[82].wlan.mgmt 	dataQueueLen:timeavg 	1.4176236149311
attr interpolationmode  sample-hold
attr title  "data queue length, timeavg"
scalar scenarioPRJP1.node[82].wlan.mgmt 	dropPkByQueue:count 	0
attr interpolationmode  none
attr source  dropPkByQueue
attr title  "packets dropped by queue, count"
scalar scenarioPRJP1.node[82].wlan.mgmt 	dropPkByQueue:sum(packetBytes) 	0
attr interpolationmode  none
attr source  dropPkByQueue
attr title  "packets dropped by queue, sum(packetBytes)"
scalar scenarioPRJP1.node[82].wlan.mac 	"number of received packets" 	2746
scalar scenarioPRJP1.node[82].wlan.mac 	"number of collisions" 	76705
scalar scenarioPRJP1.node[82].wlan.mac 	"number of internal collisions" 	0
scalar scenarioPRJP1.node[82].wlan.mac 	"number of retry for AC 0" 	11459
scalar scenarioPRJP1.node[82].wlan.mac 	"number of retry for AC 1" 	0
scalar scenarioPRJP1.node[82].wlan.mac 	"number of retry for AC 2" 	0
scalar scenarioPRJP1.node[82].wlan.mac 	"number of retry for AC 3" 	0
scalar scenarioPRJP1.node[82].wlan.mac 	"sent and received bits" 	5904512
scalar scenarioPRJP1.node[82].wlan.mac 	"sent packet within AC 0" 	2040
scalar scenarioPRJP1.node[82].wlan.mac 	"sent packet within AC 1" 	0
scalar scenarioPRJP1.node[82].wlan.mac 	"sent packet within AC 2" 	0
scalar scenarioPRJP1.node[82].wlan.mac 	"sent packet within AC 3" 	0
scalar scenarioPRJP1.node[82].wlan.mac 	"sent in TXOP " 	0
scalar scenarioPRJP1.node[82].wlan.mac 	"sentWithoutRetry AC 0" 	1495
scalar scenarioPRJP1.node[82].wlan.mac 	"sentWithoutRetry AC 1" 	0
scalar scenarioPRJP1.node[82].wlan.mac 	"sentWithoutRetry AC 2" 	0
scalar scenarioPRJP1.node[82].wlan.mac 	"sentWithoutRetry AC 3" 	0
scalar scenarioPRJP1.node[82].wlan.mac 	"numGivenUp AC 0" 	1741
scalar scenarioPRJP1.node[82].wlan.mac 	"numGivenUp AC 1" 	0
scalar scenarioPRJP1.node[82].wlan.mac 	"numGivenUp AC 2" 	0
scalar scenarioPRJP1.node[82].wlan.mac 	"numGivenUp AC 3" 	0
scalar scenarioPRJP1.node[82].wlan.mac 	"numDropped AC 0" 	454
scalar scenarioPRJP1.node[82].wlan.mac 	"numDropped AC 1" 	0
scalar scenarioPRJP1.node[82].wlan.mac 	"numDropped AC 2" 	0
scalar scenarioPRJP1.node[82].wlan.mac 	"numDropped AC 3" 	0
scalar scenarioPRJP1.node[82].wlan.mac 	rcvdPkFromLL:count 	163713
attr interpolationmode  none
attr source  packetReceivedFromLower
attr title  "packets received from lower layer, count"
scalar scenarioPRJP1.node[82].wlan.mac 	rcvdPkFromLL:sum(packetBytes) 	38686000
attr interpolationmode  none
attr source  packetReceivedFromLower
attr title  "packets received from lower layer, sum(packetBytes)"
scalar scenarioPRJP1.node[82].wlan.mac 	sentDownPk:count 	20701
attr interpolationmode  none
attr source  packetSentToLower
attr title  "packets sent to lower layer, count"
scalar scenarioPRJP1.node[82].wlan.mac 	sentDownPk:sum(packetBytes) 	5286708
attr interpolationmode  none
attr source  packetSentToLower
attr title  "packets sent to lower layer, sum(packetBytes)"
scalar scenarioPRJP1.node[82].wlan.mac 	rcvdPkFromHL:count 	6950
attr interpolationmode  none
attr source  packetReceivedFromUpper
attr title  "packets received from higher layer, count"
scalar scenarioPRJP1.node[82].wlan.mac 	rcvdPkFromHL:sum(packetBytes) 	1416292
attr interpolationmode  none
attr source  packetReceivedFromUpper
attr title  "packets received from higher layer, sum(packetBytes)"
scalar scenarioPRJP1.node[82].wlan.mac 	passedUpPk:count 	12555
attr interpolationmode  none
attr source  packetSentToUpper
attr title  "packets passed to higher layer, count"
scalar scenarioPRJP1.node[82].wlan.mac 	passedUpPk:sum(packetBytes) 	1351076
attr interpolationmode  none
attr source  packetSentToUpper
attr title  "packets passed to higher layer, sum(packetBytes)"
statistic scenarioPRJP1.node[82].wlan.radio 	radioChannel:histogram
field count 1
field mean 3
field stddev nan
field sum 3
field sqrsum 9
field min 3
field max 3
attr interpolationmode  sample-hold
attr source  radioChannelChanged
attr title  "Radio channel, histogram"
bin	-INF	0
bin	2	0
bin	3	1
bin	4	0
scalar scenarioPRJP1.node[82].wlan.radio 	transmissionState:count 	82804
attr interpolationmode  sample-hold
attr source  transmissionStateChanged
attr title  "Radio transmission state, count"
scalar scenarioPRJP1.node[82].wlan.radio 	receptionState:count 	414142
attr interpolationmode  sample-hold
attr source  receptionStateChanged
attr title  "Radio reception state, count"
scalar scenarioPRJP1.node[82].wlan.radio 	radioMode:count 	41404
attr interpolationmode  sample-hold
attr source  radioModeChanged
attr title  "Radio mode, count"
statistic scenarioPRJP1.node[82].wlan.radio 	symbolErrorRate:histogram
field count 0
field mean nan
field stddev nan
field sum 0
field sqrsum 0
field min nan
field max nan
attr source  symbolErrorRate
attr title  "Symbol error rate, histogram"
bin	-INF	0
bin	-0.5	0
bin	-0.46666666666667	0
bin	-0.43333333333333	0
bin	-0.4	0
bin	-0.36666666666667	0
bin	-0.33333333333333	0
bin	-0.3	0
bin	-0.26666666666667	0
bin	-0.23333333333333	0
bin	-0.2	0
bin	-0.16666666666667	0
bin	-0.13333333333333	0
[...]
scalar scenarioPRJP1.node[70].wlan.mac 	passedUpPk:count 	20584
attr interpolationmode  none
attr source  packetSentToUpper
attr title  "packets passed to higher layer, count"
scalar scenarioPRJP1.node[70].wlan.mac 	passedUpPk:sum(packetBytes) 	2163480
attr interpolationmode  none
attr source  packetSentToUpper
attr title  "packets passed to higher layer, sum(packetBytes)"
statistic scenarioPRJP1.node[70].wlan.radio 	radioChannel:histogram
field count 1
field mean 3
field stddev nan
field sum 3
field sqrsum 9
field min 3
field max 3
attr interpolationmode  sample-hold
attr source  radioChannelChanged
attr title  "Radio channel, histogram"
bin	-INF	0
bin	2	0
bin	3	1
bin	4	0
scalar scenarioPRJP1.node[70].wlan.radio 	transmissionState:count 	175476
attr interpolationmode  sample-hold
attr source  transmissionStateChanged
attr title  "Radio transmission state, count"
scalar scenarioPRJP1.node[70].wlan.radio 	receptionState:count 	792571
attr interpolationmode  sample-hold
attr source  receptionStateChanged
attr title  "Radio reception state, count"
scalar scenarioPRJP1.node[70].wlan.radio 	radioMode:count 	87740
attr interpolationmode  sample-hold
attr source  radioModeChanged
attr title  "Radio mode, count"
statistic scenarioPRJP1.node[70].wlan.radio 	symbolErrorRate:histogram
field count 0
field mean nan
field stddev nan
field sum 0
field sqrsum 0
field min nan
field max nan
attr source  symbolErrorRate
attr title  "Symbol error rate, histogram"
bin	-INF	0
bin	-0.5	0
bin	-0.46666666666667	0
bin	-0.43333333333333	0
bin	-0.4	0
bin	-0.36666666666667	0
bin	-0.33333333333333	0
bin	-0.3	0
bin	-0.26666666666667	0
bin	-0.23333333333333	0
bin	-0.2	0
bin	-0.16666666666667	0
bin	-0.13333333333333	0
bin	-0.1	0
bin	-0.066666666666667	0
bin	-0.033333333333333	0
bin	0	0
bin	0.033333333333333	0
bin	0.066666666666667	0
bin	0.1	0
bin	0.13333333333333	0
bin	0.16666666666667	0
bin	0.2	0
bin	0.23333333333333	0
bin	0.26666666666667	0
bin	0.3	0
bin	0.33333333333333	0
bin	0.36666666666667	0
bin	0.4	0
bin	0.43333333333333	0
bin	0.46666666666667	0
bin	0.5	0
statistic scenarioPRJP1.node[70].wlan.radio 	bitErrorRate:histogram
field count 0
field mean nan
field stddev nan
field sum 0
field sqrsum 0
field min nan
field max nan
attr source  bitErrorRate
attr title  "Bit error rate, histogram"
bin	-INF	0
bin	-0.5	0
bin	-0.46666666666667	0
bin	-0.43333333333333	0
bin	-0.4	0
bin	-0.36666666666667	0
bin	-0.33333333333333	0
bin	-0.3	0
bin	-0.26666666666667	0
bin	-0.23333333333333	0
bin	-0.2	0
bin	-0.16666666666667	0
bin	-0.13333333333333	0
bin	-0.1	0
bin	-0.066666666666667	0
bin	-0.033333333333333	0
bin	0	0
bin	0.033333333333333	0
bin	0.066666666666667	0
bin	0.1	0
bin	0.13333333333333	0
bin	0.16666666666667	0
bin	0.2	0
bin	0.23333333333333	0
bin	0.26666666666667	0
bin	0.3	0
bin	0.33333333333333	0
bin	0.36666666666667	0
bin	0.4	0
bin	0.43333333333333	0
bin	0.46666666666667	0
bin	0.5	0
statistic scenarioPRJP1.node[70].wlan.radio 	packetErrorRate:histogram
field count 304735
field mean 0.3984058406538
field stddev 0.48207510273805
field sum 121408.20385164
field sqrsum 119188.8235015
field min 0
field max 1
attr source  packetErrorRate
attr title  "Packet error rate, histogram"
bin	-INF	0
bin	-0.5	0
bin	-0.43333333333333	0
bin	-0.36666666666667	0
bin	-0.3	0
bin	-0.23333333333333	0
bin	-0.16666666666667	0
bin	-0.1	0
bin	-0.033333333333333	174306
bin	0.033333333333333	3591
bin	0.1	1761
bin	0.16666666666667	1285
bin	0.23333333333333	957
bin	0.3	786
bin	0.36666666666667	662
bin	0.43333333333333	661
bin	0.5	587
bin	0.56666666666667	555
bin	0.63333333333333	618
bin	0.7	625
bin	0.76666666666667	698
bin	0.83333333333333	787
bin	0.9	1184
bin	0.96666666666667	115672
bin	1.0333333333333	0
bin	1.1	0
bin	1.1666666666667	0
bin	1.2333333333333	0
bin	1.3	0
bin	1.3666666666667	0
bin	1.4333333333333	0
bin	1.5	0
statistic scenarioPRJP1.node[70].wlan.radio 	minSNIR:histogram
field count 304735
field mean 757.24185525159
field stddev 11364.574569927
field sum 230758096.76009
field sqrsum 39532219166037
field min 6.1606320718109e-05
field max 2235513.3708788
attr source  minSNIR
attr title  "Min SNIR, histogram"
bin	-INF	0
bin	-9239.6076963019	0
bin	-8007.6452977349	0
bin	-6775.6828991679	0
bin	-5543.720500601	0
bin	-4311.758102034	0
bin	-3079.795703467	0
bin	-1847.8333049001	0
bin	-615.8709063331	282864
bin	616.09149223387	11610
bin	1848.0538908008	2970
bin	3080.0162893678	1515
bin	4311.9786879348	882
bin	5543.9410865017	597
bin	6775.9034850687	488
bin	8007.8658836357	398
bin	9239.8282822026	297
bin	10471.79068077	255
bin	11703.753079337	198
bin	12935.715477904	165
bin	14167.67787647	166
bin	15399.640275037	126
bin	16631.602673604	136
bin	17863.565072171	103
bin	19095.527470738	110
bin	20327.489869305	93
bin	21559.452267872	79
bin	22791.414666439	76
bin	24023.377065006	49
bin	25255.339463573	61
bin	26487.30186214	47
bin	27719.264260707	1450
scalar scenarioPRJP1.node[70].lo0.lo 	droppedPkBitError:count 	0
attr interpolationmode  none
attr source  dropPkBitError
attr title  "packets dropped/bit error, count"
scalar scenarioPRJP1.node[70].lo0.lo 	droppedPkBitError:sum(packetBytes) 	0
attr interpolationmode  none
attr source  dropPkBitError
attr title  "packets dropped/bit error, sum(packetBytes)"
scalar scenarioPRJP1.node[70].lo0.lo 	rcvdPkFromHL:count 	104
attr interpolationmode  none
attr source  packetReceivedFromUpper
attr title  "packets received from higher layer, count"
scalar scenarioPRJP1.node[70].lo0.lo 	rcvdPkFromHL:sum(packetBytes) 	54080
attr interpolationmode  none
attr source  packetReceivedFromUpper
attr title  "packets received from higher layer, sum(packetBytes)"
scalar scenarioPRJP1.node[70].lo0.lo 	passedUpPk:count 	104
attr interpolationmode  none
attr source  packetSentToUpper
attr title  "packets passed to higher layer, count"
scalar scenarioPRJP1.node[70].lo0.lo 	passedUpPk:sum(packetBytes) 	54080
attr interpolationmode  none
attr source  packetSentToUpper
attr title  "packets passed to higher layer, sum(packetBytes)"
scalar scenarioPRJP1.node[89].app 	"Total sent" 	2610
scalar scenarioPRJP1.node[89].app 	"Total received" 	79
scalar scenarioPRJP1.node[89].app 	"Total deleted" 	0
scalar scenarioPRJP1.node[89].app 	dropPk:count 	0
attr interpolationmode  none
attr source  dropPk
attr title  "packets dropped, count"
scalar scenarioPRJP1.node[89].app 	dropPk:sum(packetBytes) 	0
attr interpolationmode  none
attr source  dropPk
attr title  "packets dropped, sum(packetBytes)"
scalar scenarioPRJP1.node[89].app 	outOfOrderPk:count 	2
attr interpolationmode  none
attr source  outOfOrderPk
attr title  "packets received out of order, count"
scalar scenarioPRJP1.node[89].app 	outOfOrderPk:sum(packetBytes) 	1024
attr interpolationmode  none
attr source  outOfOrderPk
attr title  "packets received out of order, sum(packetBytes)"
scalar scenarioPRJP1.node[89].app 	rcvdPk:count 	79
attr interpolationmode  none
attr source  rcvdPk
attr title  "packets received, count"
scalar scenarioPRJP1.node[89].app 	rcvdPk:sum(packetBytes) 	40448
attr interpolationmode  none
attr source  rcvdPk
attr title  "packets received, sum(packetBytes)"
statistic scenarioPRJP1.node[89].app 	endToEndDelay:histogram
field count 79
field mean 0.5742779867731
field stddev 0.88816692319545
field sum 45.367960955075
field sqrsum 87.583378991042
field min 0.000964056308
field max 4.56854835726
attr interpolationmode  none
attr source  messageAge(rcvdPk)
attr title  "delay, histogram"
attr unit  s
bin	-INF	0
bin	-2.282828094168	0
bin	-1.9783224741045	0
bin	-1.6738168540411	0
bin	-1.3693112339776	0
bin	-1.0648056139141	0
bin	-0.76029999385067	0
bin	-0.4557943737872	0
bin	-0.15128875372373	46
bin	0.15321686633973	5
bin	0.4577224864032	7
bin	0.76222810646667	0
bin	1.0667337265301	13
bin	1.3712393465936	2
bin	1.6757449666571	0
bin	1.9802505867205	2
bin	2.284756206784	2
bin	2.5892618268475	0
bin	2.8937674469109	0
bin	3.1982730669744	0
bin	3.5027786870379	0
bin	3.8072843071013	0
bin	4.1117899271648	1
bin	4.4162955472283	1
bin	4.7208011672917	0
bin	5.0253067873552	0
bin	5.3298124074187	0
bin	5.6343180274821	0
bin	5.9388236475456	0
bin	6.2433292676091	0
bin	6.5478348876725	0
bin	6.852340507736	0
scalar scenarioPRJP1.node[89].app 	sentPk:count 	2610
attr interpolationmode  none
attr source  sentPk
attr title  "packets sent, count"
scalar scenarioPRJP1.node[89].app 	sentPk:sum(packetBytes) 	1336320
attr interpolationmode  none
attr source  sentPk
attr title  "packets sent, sum(packetBytes)"
scalar scenarioPRJP1.node[89].udp 	droppedPkBadChecksum:count 	0
attr interpolationmode  none
attr title  "packets dropped (checksum error), count"
scalar scenarioPRJP1.node[89].udp 	droppedPkWrongPort:count 	0
attr interpolationmode  none
attr title  "packets dropped (wrong port), count"
scalar scenarioPRJP1.node[89].udp 	passedUpPk:count 	81
attr interpolationmode  none
attr title  "packets passed up, count"
scalar scenarioPRJP1.node[89].udp 	rcvdPk:count 	81
attr interpolationmode  none
attr source  rcvdPk
attr title  "packets received, count"
scalar scenarioPRJP1.node[89].udp 	rcvdPk:sum(packetBytes) 	42120
attr interpolationmode  none
attr source  rcvdPk
attr title  "packets received, sum(packetBytes)"
scalar scenarioPRJP1.node[89].udp 	sentPk:count 	2610
attr interpolationmode  none
attr source  sentPk
attr title  "packets sent, count"
scalar scenarioPRJP1.node[89].udp 	sentPk:sum(packetBytes) 	1357200
attr interpolationmode  none
attr source  sentPk
attr title  "packets sent, sum(packetBytes)"
scalar scenarioPRJP1.node[89].networkLayer.arp 	failedARPResolution:count 	457
attr title  "ARP failed resolutions, count"
scalar scenarioPRJP1.node[89].networkLayer.arp 	completedARPResolution:count 	5331
attr title  "ARP completed resolutions, count"
scalar scenarioPRJP1.node[89].networkLayer.arp 	initiatedARPResolution:count 	573
attr title  "ARP initiated resolutions, count"
scalar scenarioPRJP1.node[89].networkLayer.arp 	sentReply:count 	56
attr title  "ARP replies sent, count"
scalar scenarioPRJP1.node[89].networkLayer.arp 	sentReq:count 	1569
attr title  "ARP request sent, count"
scalar scenarioPRJP1.node[89].mobility 	startTime 	9.7
scalar scenarioPRJP1.node[89].mobility 	totalTime 	940.3
scalar scenarioPRJP1.node[89].mobility 	stopTime 	950
scalar scenarioPRJP1.node[89].mobility 	minSpeed 	2.4756147441713e-13
scalar scenarioPRJP1.node[89].mobility 	maxSpeed 	16.924857780907
scalar scenarioPRJP1.node[89].mobility 	totalDistance 	8816.3657522656
scalar scenarioPRJP1.node[89].mobility 	totalCO2Emission 	2412.6510488669
scalar scenarioPRJP1.node[89].wlan.mgmt 	dataQueueLen:max 	4
attr interpolationmode  sample-hold
attr title  "data queue length, max"
scalar scenarioPRJP1.node[89].wlan.mgmt 	dataQueueLen:timeavg 	0
attr interpolationmode  sample-hold
attr title  "data queue length, timeavg"
scalar scenarioPRJP1.node[89].wlan.mgmt 	dropPkByQueue:count 	0
attr interpolationmode  none
attr source  dropPkByQueue
attr title  "packets dropped by queue, count"
scalar scenarioPRJP1.node[89].wlan.mgmt 	dropPkByQueue:sum(packetBytes) 	0
attr interpolationmode  none
attr source  dropPkByQueue
attr title  "packets dropped by queue, sum(packetBytes)"
scalar scenarioPRJP1.node[89].wlan.mac 	"number of received packets" 	4269
scalar scenarioPRJP1.node[89].wlan.mac 	"number of collisions" 	120152
scalar scenarioPRJP1.node[89].wlan.mac 	"number of internal collisions" 	0
scalar scenarioPRJP1.node[89].wlan.mac 	"number of retry for AC 0" 	28610
scalar scenarioPRJP1.node[89].wlan.mac 	"number of retry for AC 1" 	0
scalar scenarioPRJP1.node[89].wlan.mac 	"number of retry for AC 2" 	0
scalar scenarioPRJP1.node[89].wlan.mac 	"number of retry for AC 3" 	0
scalar scenarioPRJP1.node[89].wlan.mac 	"sent and received bits" 	7067776
scalar scenarioPRJP1.node[89].wlan.mac 	"sent packet within AC 0" 	1766
scalar scenarioPRJP1.node[89].wlan.mac 	"sent packet within AC 1" 	0
scalar scenarioPRJP1.node[89].wlan.mac 	"sent packet within AC 2" 	0
scalar scenarioPRJP1.node[89].wlan.mac 	"sent packet within AC 3" 	0
scalar scenarioPRJP1.node[89].wlan.mac 	"sent in TXOP " 	0
scalar scenarioPRJP1.node[89].wlan.mac 	"sentWithoutRetry AC 0" 	1251
scalar scenarioPRJP1.node[89].wlan.mac 	"sentWithoutRetry AC 1" 	0
scalar scenarioPRJP1.node[89].wlan.mac 	"sentWithoutRetry AC 2" 	0
scalar scenarioPRJP1.node[89].wlan.mac 	"sentWithoutRetry AC 3" 	0
scalar scenarioPRJP1.node[89].wlan.mac 	"numGivenUp AC 0" 	4569
scalar scenarioPRJP1.node[89].wlan.mac 	"numGivenUp AC 1" 	0
scalar scenarioPRJP1.node[89].wlan.mac 	"numGivenUp AC 2" 	0
scalar scenarioPRJP1.node[89].wlan.mac 	"numGivenUp AC 3" 	0
scalar scenarioPRJP1.node[89].wlan.mac 	"numDropped AC 0" 	0
scalar scenarioPRJP1.node[89].wlan.mac 	"numDropped AC 1" 	0
scalar scenarioPRJP1.node[89].wlan.mac 	"numDropped AC 2" 	0
scalar scenarioPRJP1.node[89].wlan.mac 	"numDropped AC 3" 	0
scalar scenarioPRJP1.node[89].wlan.mac 	rcvdPkFromLL:count 	274984
attr interpolationmode  none
attr source  packetReceivedFromLower
attr title  "packets received from lower layer, count"
scalar scenarioPRJP1.node[89].wlan.mac 	rcvdPkFromLL:sum(packetBytes) 	83242446
attr interpolationmode  none
attr source  packetReceivedFromLower
attr title  "packets received from lower layer, sum(packetBytes)"
scalar scenarioPRJP1.node[89].wlan.mac 	sentDownPk:count 	43190
attr interpolationmode  none
attr source  packetSentToLower
attr title  "packets sent to lower layer, count"
scalar scenarioPRJP1.node[89].wlan.mac 	sentDownPk:sum(packetBytes) 	13867870
attr interpolationmode  none
attr source  packetSentToLower
attr title  "packets sent to lower layer, sum(packetBytes)"
scalar scenarioPRJP1.node[89].wlan.mac 	rcvdPkFromHL:count 	10312
attr interpolationmode  none
attr source  packetReceivedFromUpper
attr title  "packets received from higher layer, count"
scalar scenarioPRJP1.node[89].wlan.mac 	rcvdPkFromHL:sum(packetBytes) 	2658680
attr interpolationmode  none
attr source  packetReceivedFromUpper
attr title  "packets received from higher layer, sum(packetBytes)"
scalar scenarioPRJP1.node[89].wlan.mac 	passedUpPk:count 	13449
attr interpolationmode  none
attr source  packetSentToUpper
attr title  "packets passed to higher layer, count"
scalar scenarioPRJP1.node[89].wlan.mac 	passedUpPk:sum(packetBytes) 	1486232
attr interpolationmode  none
attr source  packetSentToUpper
attr title  "packets passed to higher layer, sum(packetBytes)"
statistic scenarioPRJP1.node[89].wlan.radio 	radioChannel:histogram
field count 1
field mean 3
field stddev nan
field sum 3
field sqrsum 9
field min 3
field max 3
attr interpolationmode  sample-hold
attr source  radioChannelChanged
attr title  "Radio channel, histogram"
bin	-INF	0
bin	2	0
bin	3	1
bin	4	0
scalar scenarioPRJP1.node[89].wlan.radio 	transmissionState:count 	172760
attr interpolationmode  sample-hold
attr source  transmissionStateChanged
attr title  "Radio transmission state, count"
scalar scenarioPRJP1.node[89].wlan.radio 	receptionState:count 	725778
attr interpolationmode  sample-hold
attr source  receptionStateChanged
attr title  "Radio reception state, count"
scalar scenarioPRJP1.node[89].wlan.radio 	radioMode:count 	86382
attr interpolationmode  sample-hold
attr source  radioModeChanged
attr title  "Radio mode, count"
statistic scenarioPRJP1.node[89].wlan.radio 	symbolErrorRate:histogram
field count 0
field mean nan
field stddev nan
field sum 0
field sqrsum 0
field min nan
field max nan
attr source  symbolErrorRate
attr title  "Symbol error rate, histogram"
bin	-INF	0
bin	-0.5	0
bin	-0.46666666666667	0
bin	-0.43333333333333	0
bin	-0.4	0
bin	-0.36666666666667	0
bin	-0.33333333333333	0
bin	-0.3	0
bin	-0.26666666666667	0
bin	-0.23333333333333	0
bin	-0.2	0
bin	-0.16666666666667	0
bin	-0.13333333333333	0
bin	-0.1	0
bin	-0.066666666666667	0
bin	-0.033333333333333	0
bin	0	0
bin	0.033333333333333	0
bin	0.066666666666667	0
bin	0.1	0
bin	0.13333333333333	0
bin	0.16666666666667	0
bin	0.2	0
bin	0.23333333333333	0
bin	0.26666666666667	0
bin	0.3	0
bin	0.33333333333333	0
bin	0.36666666666667	0
bin	0.4	0
bin	0.43333333333333	0
bin	0.46666666666667	0
bin	0.5	0
statistic scenarioPRJP1.node[89].wlan.radio 	bitErrorRate:histogram
field count 0
field mean nan
field stddev nan
field sum 0
field sqrsum 0
field min nan
field max nan
attr source  bitErrorRate
attr title  "Bit error rate, histogram"
bin	-INF	0
bin	-0.5	0
bin	-0.46666666666667	0
bin	-0.43333333333333	0
bin	-0.4	0
bin	-0.36666666666667	0
bin	-0.33333333333333	0
bin	-0.3	0
bin	-0.26666666666667	0
bin	-0.23333333333333	0
bin	-0.2	0
bin	-0.16666666666667	0
bin	-0.13333333333333	0
bin	-0.1	0
bin	-0.066666666666667	0
bin	-0.033333333333333	0
bin	0	0
bin	0.033333333333333	0
bin	0.066666666666667	0
bin	0.1	0
bin	0.13333333333333	0
bin	0.16666666666667	0
bin	0.2	0
bin	0.23333333333333	0
bin	0.26666666666667	0
bin	0.3	0
bin	0.33333333333333	0
bin	0.36666666666667	0
bin	0.4	0
bin	0.43333333333333	0
bin	0.46666666666667	0
bin	0.5	0
statistic scenarioPRJP1.node[89].wlan.radio 	packetErrorRate:histogram
field count 274984
field mean 0.42166041225319
field stddev 0.48546486365826
field sum 115949.86680303
field sqrsum 113698.39895044
field min 0
field max 1
attr source  packetErrorRate
attr title  "Packet error rate, histogram"
bin	-INF	0
bin	-0.5	0
bin	-0.43333333333333	0
bin	-0.36666666666667	0
bin	-0.3	0
bin	-0.23333333333333	0
bin	-0.16666666666667	0
bin	-0.1	0
bin	-0.033333333333333	149919
bin	0.033333333333333	3602
bin	0.1	1826
bin	0.16666666666667	1237
bin	0.23333333333333	958
bin	0.3	825
bin	0.36666666666667	702
bin	0.43333333333333	627
bin	0.5	622
bin	0.56666666666667	594
bin	0.63333333333333	581
bin	0.7	619
bin	0.76666666666667	749
bin	0.83333333333333	777
bin	0.9	1220
bin	0.96666666666667	110126
bin	1.0333333333333	0
bin	1.1	0
bin	1.1666666666667	0
bin	1.2333333333333	0
bin	1.3	0
bin	1.3666666666667	0
bin	1.4333333333333	0
bin	1.5	0
statistic scenarioPRJP1.node[89].wlan.radio 	minSNIR:histogram
field count 274984
field mean 1120.4577358122
field stddev 14817.038440223
field sum 308107950.02459
field sqrsum 60716262415628
field min 4.7910103979833e-05
field max 1501868.4109729
attr source  minSNIR
attr title  "Min SNIR, histogram"
bin	-INF	0
bin	-756.40643136775	0
bin	-655.53671825392	0
bin	-554.66700514009	0
bin	-453.79729202626	0
bin	-352.92757891243	0
bin	-252.05786579859	0
bin	-151.18815268476	0
bin	-50.318439570931	205878
bin	50.551273542901	21116
bin	151.42098665673	15319
bin	252.29069977056	6427
bin	353.1604128844	3694
bin	454.03012599823	2500
bin	554.89983911206	1838
bin	655.76955222589	1338
bin	756.63926533972	1084
bin	857.50897845356	889
bin	958.37869156739	751
bin	1059.2484046812	675
bin	1160.1181177951	543
bin	1260.9878309089	496
bin	1361.8575440227	423
bin	1462.7272571365	418
bin	1563.5969702504	357
bin	1664.4666833642	340
bin	1765.336396478	287
bin	1866.2061095919	298
bin	1967.0758227057	235
bin	2067.9455358195	241
bin	2168.8152489334	213
bin	2269.6849620472	9624
scalar scenarioPRJP1.node[89].lo0.lo 	droppedPkBitError:count 	0
attr interpolationmode  none
attr source  dropPkBitError
attr title  "packets dropped/bit error, count"
scalar scenarioPRJP1.node[89].lo0.lo 	droppedPkBitError:sum(packetBytes) 	0
attr interpolationmode  none
attr source  dropPkBitError
attr title  "packets dropped/bit error, sum(packetBytes)"
scalar scenarioPRJP1.node[89].lo0.lo 	rcvdPkFromHL:count 	81
attr interpolationmode  none
attr source  packetReceivedFromUpper
attr title  "packets received from higher layer, count"
scalar scenarioPRJP1.node[89].lo0.lo 	rcvdPkFromHL:sum(packetBytes) 	42120
attr interpolationmode  none
attr source  packetReceivedFromUpper
attr title  "packets received from higher layer, sum(packetBytes)"
scalar scenarioPRJP1.node[89].lo0.lo 	passedUpPk:count 	81
attr interpolationmode  none
attr source  packetSentToUpper
attr title  "packets passed to higher layer, count"
scalar scenarioPRJP1.node[89].lo0.lo 	passedUpPk:sum(packetBytes) 	42120
attr interpolationmode  none
attr source  packetSentToUpper
attr title  "packets passed to higher layer, sum(packetBytes)"
