version 2
run DYMOUM-TRG-50n-10-20150803-14:48:52-16279
attr configname DYMOUM-TRG-50n
attr datetime 20150803-14:48:52
attr experiment DYMOUM-TRG-50n
attr inifile omnetpp.ini
attr iterationvars ""
attr iterationvars2 $repetition=10
attr measurement ""
attr network Prj_Part1_propag.scenarioPRJP1
attr processid 16279
attr repetition 10
attr replication #10
attr resultdir results
attr runnumber 10
attr seedset 10

scalar scenarioPRJP1.radioMedium.propagation 	"Arrival computation count" 	63232166
scalar scenarioPRJP1.radioMedium 	"transmission count" 	1290488
scalar scenarioPRJP1.radioMedium 	"radio frame send count" 	63232166
scalar scenarioPRJP1.radioMedium 	"reception computation count" 	62735834
scalar scenarioPRJP1.radioMedium 	"interference computation count" 	168117826
scalar scenarioPRJP1.radioMedium 	"reception decision computation count" 	4524082
scalar scenarioPRJP1.radioMedium 	"listening decision computation count" 	102882451
scalar scenarioPRJP1.radioMedium 	"reception cache hit" 	88.177574930136
attr unit  %
scalar scenarioPRJP1.radioMedium 	"interference cache hit" 	50
attr unit  %
scalar scenarioPRJP1.radioMedium 	"noise cache hit" 	0
attr unit  %
scalar scenarioPRJP1.radioMedium 	"snir cache hit" 	0
attr unit  %
scalar scenarioPRJP1.radioMedium 	"reception decision cache hit" 	0
attr unit  %
scalar scenarioPRJP1.node[0].app 	"Total sent" 	2611
scalar scenarioPRJP1.node[0].app 	"Total received" 	523
scalar scenarioPRJP1.node[0].app 	"Total deleted" 	83
scalar scenarioPRJP1.node[0].app 	dropPk:count 	83
attr interpolationmode  none
attr source  dropPk
attr title  "packets dropped, count"
scalar scenarioPRJP1.node[0].app 	dropPk:sum(packetBytes) 	42496
attr interpolationmode  none
attr source  dropPk
attr title  "packets dropped, sum(packetBytes)"
scalar scenarioPRJP1.node[0].app 	outOfOrderPk:count 	0
attr interpolationmode  none
attr source  outOfOrderPk
attr title  "packets received out of order, count"
scalar scenarioPRJP1.node[0].app 	outOfOrderPk:sum(packetBytes) 	0
attr interpolationmode  none
attr source  outOfOrderPk
attr title  "packets received out of order, sum(packetBytes)"
scalar scenarioPRJP1.node[0].app 	rcvdPk:count 	523
attr interpolationmode  none
attr source  rcvdPk
attr title  "packets received, count"
scalar scenarioPRJP1.node[0].app 	rcvdPk:sum(packetBytes) 	267776
attr interpolationmode  none
attr source  rcvdPk
attr title  "packets received, sum(packetBytes)"
statistic scenarioPRJP1.node[0].app 	endToEndDelay:histogram
field count 523
field mean 4.8088175329887
field stddev 5.9431009344061
field sum 2515.0115697531
field sqrsum 30531.505962331
field min 0.000945025204
field max 19.931737810562
attr interpolationmode  none
attr source  messageAge(rcvdPk)
attr title  "delay, histogram"
attr unit  s
bin	-INF	0
bin	-9.7251716093905	0
bin	-8.4283560555159	0
bin	-7.1315405016413	0
bin	-5.8347249477667	0
bin	-4.5379093938921	0
bin	-3.2410938400175	0
bin	-1.9442782861429	0
bin	-0.6474627322683	231
bin	0.6493528216063	30
bin	1.9461683754809	31
bin	3.2429839293555	28
bin	4.5397994832301	24
bin	5.8366150371047	29
bin	7.1334305909793	20
bin	8.4302461448539	17
bin	9.7270616987285	15
bin	11.023877252603	21
bin	12.320692806478	12
bin	13.617508360352	12
bin	14.914323914227	15
bin	16.211139468101	10
bin	17.507955021976	14
bin	18.804770575851	14
bin	20.101586129725	0
bin	21.3984016836	0
bin	22.695217237475	0
bin	23.992032791349	0
bin	25.288848345224	0
bin	26.585663899098	0
bin	27.882479452973	0
bin	29.179295006848	0
scalar scenarioPRJP1.node[0].app 	sentPk:count 	2611
attr interpolationmode  none
attr source  sentPk
attr title  "packets sent, count"
scalar scenarioPRJP1.node[0].app 	sentPk:sum(packetBytes) 	1336832
attr interpolationmode  none
attr source  sentPk
attr title  "packets sent, sum(packetBytes)"
scalar scenarioPRJP1.node[0].udp 	droppedPkBadChecksum:count 	0
attr interpolationmode  none
attr title  "packets dropped (checksum error), count"
scalar scenarioPRJP1.node[0].udp 	droppedPkWrongPort:count 	0
attr interpolationmode  none
attr title  "packets dropped (wrong port), count"
scalar scenarioPRJP1.node[0].udp 	passedUpPk:count 	606
attr interpolationmode  none
attr title  "packets passed up, count"
scalar scenarioPRJP1.node[0].udp 	rcvdPk:count 	606
attr interpolationmode  none
attr source  rcvdPk
attr title  "packets received, count"
scalar scenarioPRJP1.node[0].udp 	rcvdPk:sum(packetBytes) 	315120
attr interpolationmode  none
attr source  rcvdPk
attr title  "packets received, sum(packetBytes)"
scalar scenarioPRJP1.node[0].udp 	sentPk:count 	2611
attr interpolationmode  none
attr source  sentPk
attr title  "packets sent, count"
scalar scenarioPRJP1.node[0].udp 	sentPk:sum(packetBytes) 	1357720
attr interpolationmode  none
attr source  sentPk
attr title  "packets sent, sum(packetBytes)"
scalar scenarioPRJP1.node[0].networkLayer.arp 	failedARPResolution:count 	2
attr title  "ARP failed resolutions, count"
scalar scenarioPRJP1.node[0].networkLayer.arp 	completedARPResolution:count 	253
attr title  "ARP completed resolutions, count"
scalar scenarioPRJP1.node[0].networkLayer.arp 	initiatedARPResolution:count 	43
attr title  "ARP initiated resolutions, count"
scalar scenarioPRJP1.node[0].networkLayer.arp 	sentReply:count 	39
attr title  "ARP replies sent, count"
scalar scenarioPRJP1.node[0].networkLayer.arp 	sentReq:count 	57
attr title  "ARP request sent, count"
scalar scenarioPRJP1.node[0].manetrouting 	"simulated time" 	950
scalar scenarioPRJP1.node[0].manetrouting 	"Dymo totalSend " 	1114302
scalar scenarioPRJP1.node[0].manetrouting 	"Dymo Rreq send" 	549803
scalar scenarioPRJP1.node[0].manetrouting 	"Dymo Rreq rec" 	394568
scalar scenarioPRJP1.node[0].manetrouting 	"Dymo Rrep send" 	1542
scalar scenarioPRJP1.node[0].manetrouting 	"Dymo Rrep rec" 	1285
scalar scenarioPRJP1.node[0].manetrouting 	"Dymo Rerr send" 	1614
scalar scenarioPRJP1.node[0].manetrouting 	"Dymo Rerr rec" 	4504
scalar scenarioPRJP1.node[0].mobility 	startTime 	0.1
scalar scenarioPRJP1.node[0].mobility 	totalTime 	949.9
scalar scenarioPRJP1.node[0].mobility 	stopTime 	950
scalar scenarioPRJP1.node[0].mobility 	minSpeed 	2.4754432714379e-13
scalar scenarioPRJP1.node[0].mobility 	maxSpeed 	17.124254717836
scalar scenarioPRJP1.node[0].mobility 	totalDistance 	8199.4105042485
scalar scenarioPRJP1.node[0].mobility 	totalCO2Emission 	2367.5872834442
scalar scenarioPRJP1.node[0].wlan.mgmt 	dataQueueLen:max 	32
attr interpolationmode  sample-hold
attr title  "data queue length, max"
scalar scenarioPRJP1.node[0].wlan.mgmt 	dataQueueLen:timeavg 	0
attr interpolationmode  sample-hold
attr title  "data queue length, timeavg"
scalar scenarioPRJP1.node[0].wlan.mgmt 	dropPkByQueue:count 	0
attr interpolationmode  none
attr source  dropPkByQueue
attr title  "packets dropped by queue, count"
scalar scenarioPRJP1.node[0].wlan.mgmt 	dropPkByQueue:sum(packetBytes) 	0
attr interpolationmode  none
attr source  dropPkByQueue
attr title  "packets dropped by queue, sum(packetBytes)"
scalar scenarioPRJP1.node[0].wlan.mac 	"number of received packets" 	5241
scalar scenarioPRJP1.node[0].wlan.mac 	"number of collisions" 	14725
scalar scenarioPRJP1.node[0].wlan.mac 	"number of internal collisions" 	0
scalar scenarioPRJP1.node[0].wlan.mac 	"number of retry for AC 0" 	7755
scalar scenarioPRJP1.node[0].wlan.mac 	"number of retry for AC 1" 	0
scalar scenarioPRJP1.node[0].wlan.mac 	"number of retry for AC 2" 	0
scalar scenarioPRJP1.node[0].wlan.mac 	"number of retry for AC 3" 	0
scalar scenarioPRJP1.node[0].wlan.mac 	"sent and received bits" 	14010984
scalar scenarioPRJP1.node[0].wlan.mac 	"sent packet within AC 0" 	579
scalar scenarioPRJP1.node[0].wlan.mac 	"sent packet within AC 1" 	0
scalar scenarioPRJP1.node[0].wlan.mac 	"sent packet within AC 2" 	0
scalar scenarioPRJP1.node[0].wlan.mac 	"sent packet within AC 3" 	0
scalar scenarioPRJP1.node[0].wlan.mac 	"sent in TXOP " 	0
scalar scenarioPRJP1.node[0].wlan.mac 	"sentWithoutRetry AC 0" 	513
scalar scenarioPRJP1.node[0].wlan.mac 	"sentWithoutRetry AC 1" 	0
scalar scenarioPRJP1.node[0].wlan.mac 	"sentWithoutRetry AC 2" 	0
scalar scenarioPRJP1.node[0].wlan.mac 	"sentWithoutRetry AC 3" 	0
scalar scenarioPRJP1.node[0].wlan.mac 	"numGivenUp AC 0" 	1271
scalar scenarioPRJP1.node[0].wlan.mac 	"numGivenUp AC 1" 	0
scalar scenarioPRJP1.node[0].wlan.mac 	"numGivenUp AC 2" 	0
scalar scenarioPRJP1.node[0].wlan.mac 	"numGivenUp AC 3" 	0
scalar scenarioPRJP1.node[0].wlan.mac 	"numDropped AC 0" 	0
scalar scenarioPRJP1.node[0].wlan.mac 	"numDropped AC 1" 	0
scalar scenarioPRJP1.node[0].wlan.mac 	"numDropped AC 2" 	0
scalar scenarioPRJP1.node[0].wlan.mac 	"numDropped AC 3" 	0
scalar scenarioPRJP1.node[0].wlan.mac 	rcvdPkFromLL:count 	99671
attr interpolationmode  none
attr source  packetReceivedFromLower
attr title  "packets received from lower layer, count"
scalar scenarioPRJP1.node[0].wlan.mac 	rcvdPkFromLL:sum(packetBytes) 	28414994
attr interpolationmode  none
attr source  packetReceivedFromLower
attr title  "packets received from lower layer, sum(packetBytes)"
scalar scenarioPRJP1.node[0].wlan.mac 	sentDownPk:count 	25999
attr interpolationmode  none
attr source  packetSentToLower
attr title  "packets sent to lower layer, count"
scalar scenarioPRJP1.node[0].wlan.mac 	sentDownPk:sum(packetBytes) 	6821999
attr interpolationmode  none
attr source  packetSentToLower
attr title  "packets sent to lower layer, sum(packetBytes)"
scalar scenarioPRJP1.node[0].wlan.mac 	rcvdPkFromHL:count 	13003
attr interpolationmode  none
attr source  packetReceivedFromUpper
attr title  "packets received from higher layer, count"
scalar scenarioPRJP1.node[0].wlan.mac 	rcvdPkFromHL:sum(packetBytes) 	2454925
attr interpolationmode  none
attr source  packetReceivedFromUpper
attr title  "packets received from higher layer, sum(packetBytes)"
scalar scenarioPRJP1.node[0].wlan.mac 	passedUpPk:count 	32147
attr interpolationmode  none
attr source  packetSentToUpper
attr title  "packets passed to higher layer, count"
scalar scenarioPRJP1.node[0].wlan.mac 	passedUpPk:sum(packetBytes) 	4849785
attr interpolationmode  none
attr source  packetSentToUpper
attr title  "packets passed to higher layer, sum(packetBytes)"
statistic scenarioPRJP1.node[0].wlan.radio 	radioChannel:histogram
field count 1
field mean 3
field stddev -nan
field sum 3
field sqrsum 9
field min 3
field max 3
attr interpolationmode  sample-hold
attr source  radioChannelChanged
attr title  "Radio channel, histogram"
bin	-INF	0
bin	2	0
bin	3	1
bin	4	0
scalar scenarioPRJP1.node[0].wlan.radio 	transmissionState:count 	103996
attr interpolationmode  sample-hold
attr source  transmissionStateChanged
attr title  "Radio transmission state, count"
scalar scenarioPRJP1.node[0].wlan.radio 	receptionState:count 	253410
attr interpolationmode  sample-hold
attr source  receptionStateChanged
attr title  "Radio reception state, count"
scalar scenarioPRJP1.node[0].wlan.radio 	radioMode:count 	52000
attr interpolationmode  sample-hold
attr source  radioModeChanged
attr title  "Radio mode, count"
statistic scenarioPRJP1.node[0].wlan.radio 	symbolErrorRate:histogram
field count 0
field mean -nan
field stddev -nan
field sum 0
field sqrsum 0
field min -nan
field max -nan
attr source  symbolErrorRate
attr title  "Symbol error rate, histogram"
bin	-INF	0
bin	-0.5	0
bin	-0.46666666666667	0
bin	-0.43333333333333	0
bin	-0.4	0
bin	-0.36666666666667	0
bin	-0.33333333333333	0
bin	-0.3	0
bin	-0.26666666666667	0
bin	-0.23333333333333	0
bin	-0.2	0
bin	-0.16666666666667	0
bin	-0.13333333333333	0
bin	-0.1	0
bin	-0.066666666666667	0
bin	-0.033333333333333	0
bin	-6.9388939039072e-18	0
bin	0.033333333333333	0
bin	0.066666666666667	0
bin	0.1	0
bin	0.13333333333333	0
bin	0.16666666666667	0
bin	0.2	0
bin	0.23333333333333	0
bin	0.26666666666667	0
bin	0.3	0
bin	0.33333333333333	0
bin	0.36666666666667	0
bin	0.4	0
bin	0.43333333333333	0
bin	0.46666666666667	0
bin	0.5	0
statistic scenarioPRJP1.node[0].wlan.radio 	bitErrorRate:histogram
field count 0
field mean -nan
field stddev -nan
field sum 0
field sqrsum 0
field min -nan
field max -nan
attr source  bitErrorRate
attr title  "Bit error rate, histogram"
bin	-INF	0
bin	-0.5	0
bin	-0.46666666666667	0
bin	-0.43333333333333	0
bin	-0.4	0
bin	-0.36666666666667	0
bin	-0.33333333333333	0
bin	-0.3	0
bin	-0.26666666666667	0
bin	-0.23333333333333	0
bin	-0.2	0
bin	-0.16666666666667	0
bin	-0.13333333333333	0
bin	-0.1	0
bin	-0.066666666666667	0
bin	-0.033333333333333	0
bin	-6.9388939039072e-18	0
bin	0.033333333333333	0
bin	0.066666666666667	0
bin	0.1	0
bin	0.13333333333333	0
bin	0.16666666666667	0
bin	0.2	0
bin	0.23333333333333	0
bin	0.26666666666667	0
bin	0.3	0
bin	0.33333333333333	0
bin	0.36666666666667	0
bin	0.4	0
bin	0.43333333333333	0
bin	0.46666666666667	0
bin	0.5	0
statistic scenarioPRJP1.node[0].wlan.radio 	packetErrorRate:histogram
field count 99671
field mean 0.13225989176868
field stddev 0.32994095423188
field sum 13182.475672476
field sqrsum 12593.691992647
field min 0
field max 1
attr source  packetErrorRate
attr title  "Packet error rate, histogram"
bin	-INF	0
bin	-0.5	0
bin	-0.43333333333333	0
bin	-0.36666666666667	0
bin	-0.3	0
bin	-0.23333333333333	0
bin	-0.16666666666667	0
bin	-0.1	0
bin	-0.033333333333333	84084
bin	0.033333333333333	941
bin	0.1	505
bin	0.16666666666667	339
bin	0.23333333333333	242
bin	0.3	212
bin	0.36666666666667	196
bin	0.43333333333333	145
bin	0.5	167
bin	0.56666666666667	144
bin	0.63333333333333	147
bin	0.7	185
bin	0.76666666666667	155
bin	0.83333333333333	225
bin	0.9	336
bin	0.96666666666667	11648
bin	1.0333333333333	0
bin	1.1	0
bin	1.1666666666667	0
bin	1.2333333333333	0
bin	1.3	0
bin	1.3666666666667	0
bin	1.4333333333333	0
bin	1.5	0
statistic scenarioPRJP1.node[0].wlan.radio 	minSNIR:histogram
field count 99671
field mean 8742.0224617515
field stddev 144252.30647282
field sum 871326120.78524
field sqrsum 2.0816230645779e+15
field min 0.00016746196406739
field max 40592038.391527
attr source  minSNIR
attr title  "Min SNIR, histogram"
bin	-INF	0
bin	-71683.629598802	0
bin	-62125.757714007	0
bin	-52567.885829212	0
bin	-43010.013944417	0
bin	-33452.142059622	0
bin	-23894.270174827	0
bin	-14336.398290032	0
bin	-4778.5264052367	91696
bin	4779.3454795584	3318
bin	14337.217364354	1570
bin	23895.089249149	667
bin	33452.961133944	249
bin	43010.833018739	123
bin	52568.704903534	124
bin	62126.576788329	155
bin	71684.448673124	109
bin	81242.320557919	72
bin	90800.192442714	69
bin	100358.06432751	36
bin	109915.9362123	47
bin	119473.8080971	51
bin	129031.67998189	43
bin	138589.55186669	91
bin	148147.42375149	40
bin	157705.29563628	23
bin	167263.16752108	72
bin	176821.03940587	44
bin	186378.91129067	43
bin	195936.78317546	20
bin	205494.65506026	14
bin	215052.52694505	995
scalar scenarioPRJP1.node[0].lo0.lo 	droppedPkBitError:count 	0
attr interpolationmode  none
attr source  dropPkBitError
attr title  "packets dropped/bit error, count"
scalar scenarioPRJP1.node[0].lo0.lo 	droppedPkBitError:sum(packetBytes) 	0
attr interpolationmode  none
attr source  dropPkBitError
attr title  "packets dropped/bit error, sum(packetBytes)"
scalar scenarioPRJP1.node[0].lo0.lo 	rcvdPkFromHL:count 	0
attr interpolationmode  none
attr source  packetReceivedFromUpper
attr title  "packets received from higher layer, count"
scalar scenarioPRJP1.node[0].lo0.lo 	rcvdPkFromHL:sum(packetBytes) 	0
attr interpolationmode  none
attr source  packetReceivedFromUpper
attr title  "packets received from higher layer, sum(packetBytes)"
scalar scenarioPRJP1.node[0].lo0.lo 	passedUpPk:count 	0
attr interpolationmode  none
attr source  packetSentToUpper
attr title  "packets passed to higher layer, count"
scalar scenarioPRJP1.node[0].lo0.lo 	passedUpPk:sum(packetBytes) 	0
attr interpolationmode  none
attr source  packetSentToUpper
attr title  "packets passed to higher layer, sum(packetBytes)"
scalar scenarioPRJP1.node[20].app 	"Total sent" 	2601
scalar scenarioPRJP1.node[20].app 	"Total received" 	478
scalar scenarioPRJP1.node[20].app 	"Total deleted" 	118
scalar scenarioPRJP1.node[20].app 	dropPk:count 	118
attr interpolationmode  none
attr source  dropPk
attr title  "packets dropped, count"
scalar scenarioPRJP1.node[20].app 	dropPk:sum(packetBytes) 	60416
attr interpolationmode  none
attr source  dropPk
attr title  "packets dropped, sum(packetBytes)"
scalar scenarioPRJP1.node[20].app 	outOfOrderPk:count 	5
attr interpolationmode  none
attr source  outOfOrderPk
attr title  "packets received out of order, count"
scalar scenarioPRJP1.node[20].app 	outOfOrderPk:sum(packetBytes) 	2560
attr interpolationmode  none
attr source  outOfOrderPk
attr title  "packets received out of order, sum(packetBytes)"
scalar scenarioPRJP1.node[20].app 	rcvdPk:count 	478
attr interpolationmode  none
attr source  rcvdPk
attr title  "packets received, count"
scalar scenarioPRJP1.node[20].app 	rcvdPk:sum(packetBytes) 	244736
attr interpolationmode  none
attr source  rcvdPk
attr title  "packets received, sum(packetBytes)"
statistic scenarioPRJP1.node[20].app 	endToEndDelay:histogram
field count 478
field mean 5.2396630579741
field stddev 6.1859125009571
field sum 2504.5589417116
field sqrsum 31375.694888355
field min 0.000945022674
field max 19.979342759955
attr interpolationmode  none
attr source  messageAge(rcvdPk)
attr title  "delay, histogram"
attr unit  s
bin	-INF	0
bin	-9.6131792543395	0
bin	-8.3312960174044	0
bin	-7.0494127804692	0
bin	-5.7675295435341	0
bin	-4.485646306599	0
bin	-3.2037630696638	0
bin	-1.9218798327287	0
bin	-0.63999659579357	198
bin	0.64188664114157	33
bin	1.9237698780767	25
bin	3.2056531150118	22
bin	4.487536351947	25
bin	5.7694195888821	18
bin	7.0513028258172	23
bin	8.3331860627524	13
bin	9.6150692996875	17
bin	10.896952536623	16
bin	12.178835773558	12
bin	13.460719010493	22
bin	14.742602247428	13
bin	16.024485484363	10
bin	17.306368721298	15
bin	18.588251958233	14
bin	19.870135195169	2
bin	21.152018432104	0
bin	22.433901669039	0
bin	23.715784905974	0
bin	24.997668142909	0
bin	26.279551379844	0
bin	27.561434616779	0
bin	28.843317853714	0
scalar scenarioPRJP1.node[20].app 	sentPk:count 	2601
attr interpolationmode  none
attr source  sentPk
attr title  "packets sent, count"
scalar scenarioPRJP1.node[20].app 	sentPk:sum(packetBytes) 	1331712
attr interpolationmode  none
attr source  sentPk
attr title  "packets sent, sum(packetBytes)"
scalar scenarioPRJP1.node[20].udp 	droppedPkBadChecksum:count 	0
attr interpolationmode  none
attr title  "packets dropped (checksum error), count"
scalar scenarioPRJP1.node[20].udp 	droppedPkWrongPort:count 	0
attr interpolationmode  none
attr title  "packets dropped (wrong port), count"
scalar scenarioPRJP1.node[20].udp 	passedUpPk:count 	601
attr interpolationmode  none
attr title  "packets passed up, count"
scalar scenarioPRJP1.node[20].udp 	rcvdPk:count 	601
attr interpolationmode  none
attr source  rcvdPk
attr title  "packets received, count"
scalar scenarioPRJP1.node[20].udp 	rcvdPk:sum(packetBytes) 	312520
attr interpolationmode  none
attr source  rcvdPk
attr title  "packets received, sum(packetBytes)"
scalar scenarioPRJP1.node[20].udp 	sentPk:count 	2601
attr interpolationmode  none
attr source  sentPk
attr title  "packets sent, count"
scalar scenarioPRJP1.node[20].udp 	sentPk:sum(packetBytes) 	1352520
attr interpolationmode  none
attr source  sentPk
attr title  "packets sent, sum(packetBytes)"
scalar scenarioPRJP1.node[20].networkLayer.arp 	failedARPResolution:count 	2
attr title  "ARP failed resolutions, count"
scalar scenarioPRJP1.node[20].networkLayer.arp 	completedARPResolution:count 	168
attr title  "ARP completed resolutions, count"
scalar scenarioPRJP1.node[20].networkLayer.arp 	initiatedARPResolution:count 	40
attr title  "ARP initiated resolutions, count"
scalar scenarioPRJP1.node[20].networkLayer.arp 	sentReply:count 	34
attr title  "ARP replies sent, count"
scalar scenarioPRJP1.node[20].networkLayer.arp 	sentReq:count 	55
attr title  "ARP request sent, count"
scalar scenarioPRJP1.node[20].mobility 	startTime 	2.5
scalar scenarioPRJP1.node[20].mobility 	totalTime 	947.5
scalar scenarioPRJP1.node[20].mobility 	stopTime 	950
scalar scenarioPRJP1.node[20].mobility 	minSpeed 	2.4754792650124e-13
scalar scenarioPRJP1.node[20].mobility 	maxSpeed 	21.317713842248
scalar scenarioPRJP1.node[20].mobility 	totalDistance 	10061.74551022
scalar scenarioPRJP1.node[20].mobility 	totalCO2Emission 	3024.3584174325
scalar scenarioPRJP1.node[20].wlan.mgmt 	dataQueueLen:max 	39
attr interpolationmode  sample-hold
attr title  "data queue length, max"
scalar scenarioPRJP1.node[20].wlan.mgmt 	dataQueueLen:timeavg 	0
attr interpolationmode  sample-hold
attr title  "data queue length, timeavg"
scalar scenarioPRJP1.node[20].wlan.mgmt 	dropPkByQueue:count 	0
attr interpolationmode  none
attr source  dropPkByQueue
attr title  "packets dropped by queue, count"
scalar scenarioPRJP1.node[20].wlan.mgmt 	dropPkByQueue:sum(packetBytes) 	0
attr interpolationmode  none
attr source  dropPkByQueue
attr title  "packets dropped by queue, sum(packetBytes)"
scalar scenarioPRJP1.node[20].wlan.mac 	"number of received packets" 	4801
scalar scenarioPRJP1.node[20].wlan.mac 	"number of collisions" 	12487
scalar scenarioPRJP1.node[20].wlan.mac 	"number of internal collisions" 	0
scalar scenarioPRJP1.node[20].wlan.mac 	"number of retry for AC 0" 	7451
scalar scenarioPRJP1.node[20].wlan.mac 	"number of retry for AC 1" 	0
scalar scenarioPRJP1.node[20].wlan.mac 	"number of retry for AC 2" 	0
scalar scenarioPRJP1.node[20].wlan.mac 	"number of retry for AC 3" 	0
scalar scenarioPRJP1.node[20].wlan.mac 	"sent and received bits" 	13025320
scalar scenarioPRJP1.node[20].wlan.mac 	"sent packet within AC 0" 	508
scalar scenarioPRJP1.node[20].wlan.mac 	"sent packet within AC 1" 	1
scalar scenarioPRJP1.node[20].wlan.mac 	"sent packet within AC 2" 	0
scalar scenarioPRJP1.node[20].wlan.mac 	"sent packet within AC 3" 	0
scalar scenarioPRJP1.node[20].wlan.mac 	"sent in TXOP " 	0
scalar scenarioPRJP1.node[20].wlan.mac 	"sentWithoutRetry AC 0" 	422
scalar scenarioPRJP1.node[20].wlan.mac 	"sentWithoutRetry AC 1" 	1
scalar scenarioPRJP1.node[20].wlan.mac 	"sentWithoutRetry AC 2" 	0
scalar scenarioPRJP1.node[20].wlan.mac 	"sentWithoutRetry AC 3" 	0
scalar scenarioPRJP1.node[20].wlan.mac 	"numGivenUp AC 0" 	1210
scalar scenarioPRJP1.node[20].wlan.mac 	"numGivenUp AC 1" 	0
scalar scenarioPRJP1.node[20].wlan.mac 	"numGivenUp AC 2" 	0
scalar scenarioPRJP1.node[20].wlan.mac 	"numGivenUp AC 3" 	0
scalar scenarioPRJP1.node[20].wlan.mac 	"numDropped AC 0" 	0
scalar scenarioPRJP1.node[20].wlan.mac 	"numDropped AC 1" 	0
scalar scenarioPRJP1.node[20].wlan.mac 	"numDropped AC 2" 	0
scalar scenarioPRJP1.node[20].wlan.mac 	"numDropped AC 3" 	0
scalar scenarioPRJP1.node[20].wlan.mac 	rcvdPkFromLL:count 	82775
attr interpolationmode  none
attr source  packetReceivedFromLower
attr title  "packets received from lower layer, count"
scalar scenarioPRJP1.node[20].wlan.mac 	rcvdPkFromLL:sum(packetBytes) 	23362576
attr interpolationmode  none
attr source  packetReceivedFromLower
attr title  "packets received from lower layer, sum(packetBytes)"
scalar scenarioPRJP1.node[20].wlan.mac 	sentDownPk:count 	24540
attr interpolationmode  none
attr source  packetSentToLower
attr title  "packets sent to lower layer, count"
scalar scenarioPRJP1.node[20].wlan.mac 	sentDownPk:sum(packetBytes) 	6488464
attr interpolationmode  none
attr source  packetSentToLower
attr title  "packets sent to lower layer, sum(packetBytes)"
scalar scenarioPRJP1.node[20].wlan.mac 	rcvdPkFromHL:count 	12288
attr interpolationmode  none
attr source  packetReceivedFromUpper
attr title  "packets received from higher layer, count"
scalar scenarioPRJP1.node[20].wlan.mac 	rcvdPkFromHL:sum(packetBytes) 	2297248
attr interpolationmode  none
attr source  packetReceivedFromUpper
attr title  "packets received from higher layer, sum(packetBytes)"
scalar scenarioPRJP1.node[20].wlan.mac 	passedUpPk:count 	27449
attr interpolationmode  none
attr source  packetSentToUpper
attr title  "packets passed to higher layer, count"
scalar scenarioPRJP1.node[20].wlan.mac 	passedUpPk:sum(packetBytes) 	4151332
attr interpolationmode  none
attr source  packetSentToUpper
attr title  "packets passed to higher layer, sum(packetBytes)"
statistic scenarioPRJP1.node[20].wlan.radio 	radioChannel:histogram
field count 1
field mean 3
field stddev -nan
field sum 3
field sqrsum 9
field min 3
field max 3
attr interpolationmode  sample-hold
attr source  radioChannelChanged
attr title  "Radio channel, histogram"
bin	-INF	0
bin	2	0
bin	3	1
bin	4	0
scalar scenarioPRJP1.node[20].wlan.radio 	transmissionState:count 	98160
attr interpolationmode  sample-hold
attr source  transmissionStateChanged
attr title  "Radio transmission state, count"
scalar scenarioPRJP1.node[20].wlan.radio 	receptionState:count 	216358
attr interpolationmode  sample-hold
attr source  receptionStateChanged
attr title  "Radio reception state, count"
scalar scenarioPRJP1.node[20].wlan.radio 	radioMode:count 	49082
attr interpolationmode  sample-hold
attr source  radioModeChanged
attr title  "Radio mode, count"
statistic scenarioPRJP1.node[20].wlan.radio 	symbolErrorRate:histogram
field count 0
field mean -nan
field stddev -nan
field sum 0
field sqrsum 0
field min -nan
field max -nan
attr source  symbolErrorRate
attr title  "Symbol error rate, histogram"
bin	-INF	0
bin	-0.5	0
bin	-0.46666666666667	0
bin	-0.43333333333333	0
bin	-0.4	0
bin	-0.36666666666667	0
bin	-0.33333333333333	0
bin	-0.3	0
bin	-0.26666666666667	0
bin	-0.23333333333333	0
bin	-0.2	0
bin	-0.16666666666667	0
bin	-0.13333333333333	0
bin	-0.1	0
bin	-0.066666666666667	0
bin	-0.033333333333333	0
bin	-6.9388939039072e-18	0
bin	0.033333333333333	0
bin	0.066666666666667	0
bin	0.1	0
bin	0.13333333333333	0
bin	0.16666666666667	0
bin	0.2	0
bin	0.23333333333333	0
bin	0.26666666666667	0
bin	0.3	0
bin	0.33333333333333	0
bin	0.36666666666667	0
bin	0.4	0
bin	0.43333333333333	0
bin	0.46666666666667	0
bin	0.5	0
statistic scenarioPRJP1.node[20].wlan.radio 	bitErrorRate:histogram
field count 0
field mean -nan
field stddev -nan
field sum 0
field sqrsum 0
field min -nan
field max -nan
attr source  bitErrorRate
attr title  "Bit error rate, histogram"
bin	-INF	0
bin	-0.5	0
bin	-0.46666666666667	0
bin	-0.43333333333333	0
bin	-0.4	0
bin	-0.36666666666667	0
bin	-0.33333333333333	0
bin	-0.3	0
bin	-0.26666666666667	0
bin	-0.23333333333333	0
bin	-0.2	0
bin	-0.16666666666667	0
bin	-0.13333333333333	0
bin	-0.1	0
bin	-0.066666666666667	0
bin	-0.033333333333333	0
bin	-6.9388939039072e-18	0
bin	0.033333333333333	0
bin	0.066666666666667	0
bin	0.1	0
bin	0.13333333333333	0
bin	0.16666666666667	0
bin	0.2	0
bin	0.23333333333333	0
bin	0.26666666666667	0
bin	0.3	0
bin	0.33333333333333	0
bin	0.36666666666667	0
bin	0.4	0
bin	0.43333333333333	0
bin	0.46666666666667	0
bin	0.5	0
statistic scenarioPRJP1.node[20].wlan.radio 	packetErrorRate:histogram
field count 82775
field mean 0.13682715450038
field stddev 0.33515379175044
field sum 11325.867713769
field sqrsum 10847.529431381
field min 0
field max 1
attr source  packetErrorRate
attr title  "Packet error rate, histogram"
bin	-INF	0
bin	-0.040043761619608	0
bin	-0.03470459340366	0
bin	-0.029365425187712	0
bin	-0.024026256971765	0
bin	-0.018687088755817	0
bin	-0.013347920539869	0
bin	-0.0080087523239215	0
bin	-0.0026695841079738	67670
bin	0.0026695841079738	764
bin	0.0080087523239215	364
bin	0.013347920539869	233
bin	0.018687088755817	170
bin	0.024026256971765	171
bin	0.029365425187712	116
bin	0.03470459340366	102
bin	0.040043761619608	71
bin	0.045382929835555	73
bin	0.050722098051503	82
bin	0.056061266267451	63
bin	0.061400434483398	58
bin	0.066739602699346	47
bin	0.072078770915294	41
bin	0.077417939131241	41
bin	0.082757107347189	33
bin	0.088096275563137	57
bin	0.093435443779084	44
bin	0.098774611995032	31
bin	0.10411378021098	36
bin	0.10945294842693	42
bin	0.11479211664288	32
bin	0.12013128485882	12434
statistic scenarioPRJP1.node[20].wlan.radio 	minSNIR:histogram
field count 82775
field mean 7577.1776390917
field stddev 56884.653729139
field sum 627200879.07582
field sqrsum 2.7259780513097e+14
field min 0.0001707300812436
field max 753239.71923443
attr source  minSNIR
attr title  "Min SNIR, histogram"
bin	-INF	0
bin	-15486.941008209	0
bin	-13421.72983128	0
bin	-11356.518654351	0
bin	-9291.3074774213	0
bin	-7226.0963004921	0
bin	-5160.8851235629	0
bin	-3095.6739466336	0
bin	-1030.4627697044	71442
bin	1034.7484072248	3454
bin	3099.9595841541	1168
bin	5165.1707610833	788
bin	7230.3819380125	610
bin	9295.5931149418	652
bin	11360.804291871	447
bin	13426.0154688	254
bin	15491.226645729	227
bin	17556.437822659	314
bin	19621.648999588	144
bin	21686.860176517	267
bin	23752.071353446	172
bin	25817.282530376	224
bin	27882.493707305	260
bin	29947.704884234	86
bin	32012.916061163	53
bin	34078.127238093	54
bin	36143.338415022	55
bin	38208.549591951	69
bin	40273.76076888	41
bin	42338.97194581	45
bin	44404.183122739	47
bin	46469.394299668	1902
scalar scenarioPRJP1.node[20].lo0.lo 	droppedPkBitError:count 	0
attr interpolationmode  none
attr source  dropPkBitError
attr title  "packets dropped/bit error, count"
scalar scenarioPRJP1.node[20].lo0.lo 	droppedPkBitError:sum(packetBytes) 	0
attr interpolationmode  none
attr source  dropPkBitError
attr title  "packets dropped/bit error, sum(packetBytes)"
scalar scenarioPRJP1.node[20].lo0.lo 	rcvdPkFromHL:count 	0
attr interpolationmode  none
attr source  packetReceivedFromUpper
attr title  "packets received from higher layer, count"
scalar scenarioPRJP1.node[20].lo0.lo 	rcvdPkFromHL:sum(packetBytes) 	0
attr interpolationmode  none
attr source  packetReceivedFromUpper
attr title  "packets received from higher layer, sum(packetBytes)"
scalar scenarioPRJP1.node[20].lo0.lo 	passedUpPk:count 	0
attr interpolationmode  none
attr source  packetSentToUpper
attr title  "packets passed to higher layer, count"
scalar scenarioPRJP1.node[20].lo0.lo 	passedUpPk:sum(packetBytes) 	0
attr interpolationmode  none
attr source  packetSentToUpper
attr title  "packets passed to higher layer, sum(packetBytes)"
scalar scenarioPRJP1.node[1].app 	"Total sent" 	2622
scalar scenarioPRJP1.node[1].app 	"Total received" 	483
scalar scenarioPRJP1.node[1].app 	"Total deleted" 	96
scalar scenarioPRJP1.node[1].app 	dropPk:count 	96
attr interpolationmode  none
attr source  dropPk
attr title  "packets dropped, count"
scalar scenarioPRJP1.node[1].app 	dropPk:sum(packetBytes) 	49152
attr interpolationmode  none
attr source  dropPk
attr title  "packets dropped, sum(packetBytes)"
scalar scenarioPRJP1.node[1].app 	outOfOrderPk:count 	1
attr interpolationmode  none
attr source  outOfOrderPk
attr title  "packets received out of order, count"
scalar scenarioPRJP1.node[1].app 	outOfOrderPk:sum(packetBytes) 	512
attr interpolationmode  none
attr source  outOfOrderPk
attr title  "packets received out of order, sum(packetBytes)"
scalar scenarioPRJP1.node[1].app 	rcvdPk:count 	483
attr interpolationmode  none
attr source  rcvdPk
attr title  "packets received, count"
scalar scenarioPRJP1.node[1].app 	rcvdPk:sum(packetBytes) 	247296
attr interpolationmode  none
attr source  rcvdPk
attr title  "packets received, sum(packetBytes)"
statistic scenarioPRJP1.node[1].app 	endToEndDelay:histogram
field count 483
field mean 5.0076082470219
field stddev 5.9623293561348
field sum 2418.6747833116
field sqrsum 29246.572782969
field min 0.000945049859
field max 19.861013786649
attr interpolationmode  none
attr source  messageAge(rcvdPk)
attr title  "delay, histogram"
attr unit  s
bin	-INF	0
bin	-9.7714309854975	0
bin	-8.4684474188124	0
bin	-7.1654638521272	0
bin	-5.8624802854421	0
bin	-4.559496718757	0
bin	-3.2565131520718	0
bin	-1.9535295853867	0
bin	-0.65054601870157	207
bin	0.65243754798357	27
bin	1.9554211146687	30
bin	3.2584046813538	23
bin	4.561388248039	29
bin	5.8643718147241	16
bin	7.1673553814092	24
bin	8.4703389480944	12
bin	9.7733225147795	14
bin	11.076306081465	17
bin	12.37928964815	17
bin	13.682273214835	23
bin	14.98525678152	11
bin	16.288240348205	17
bin	17.59122391489	9
bin	18.894207481575	7
bin	20.197191048261	0
bin	21.500174614946	0
bin	22.803158181631	0
bin	24.106141748316	0
bin	25.409125315001	0
bin	26.712108881686	0
bin	28.015092448371	0
bin	29.318076015056	0
scalar scenarioPRJP1.node[1].app 	sentPk:count 	2622
attr interpolationmode  none
attr source  sentPk
attr title  "packets sent, count"
scalar scenarioPRJP1.node[1].app 	sentPk:sum(packetBytes) 	1342464
attr interpolationmode  none
attr source  sentPk
attr title  "packets sent, sum(packetBytes)"
scalar scenarioPRJP1.node[1].udp 	droppedPkBadChecksum:count 	0
attr interpolationmode  none
attr title  "packets dropped (checksum error), count"
scalar scenarioPRJP1.node[1].udp 	droppedPkWrongPort:count 	0
attr interpolationmode  none
attr title  "packets dropped (wrong port), count"
scalar scenarioPRJP1.node[1].udp 	passedUpPk:count 	580
attr interpolationmode  none
attr title  "packets passed up, count"
scalar scenarioPRJP1.node[1].udp 	rcvdPk:count 	580
attr interpolationmode  none
attr source  rcvdPk
attr title  "packets received, count"
scalar scenarioPRJP1.node[1].udp 	rcvdPk:sum(packetBytes) 	301600
attr interpolationmode  none
attr source  rcvdPk
attr title  "packets received, sum(packetBytes)"
scalar scenarioPRJP1.node[1].udp 	sentPk:count 	2622
attr interpolationmode  none
attr source  sentPk
attr title  "packets sent, count"
scalar scenarioPRJP1.node[1].udp 	sentPk:sum(packetBytes) 	1363440
attr interpolationmode  none
attr source  sentPk
attr title  "packets sent, sum(packetBytes)"
scalar scenarioPRJP1.node[1].networkLayer.arp 	failedARPResolution:count 	1
attr title  "ARP failed resolutions, count"
scalar scenarioPRJP1.node[1].networkLayer.arp 	completedARPResolution:count 	226
attr title  "ARP completed resolutions, count"
scalar scenarioPRJP1.node[1].networkLayer.arp 	initiatedARPResolution:count 	43
attr title  "ARP initiated resolutions, count"
scalar scenarioPRJP1.node[1].networkLayer.arp 	sentReply:count 	46
attr title  "ARP replies sent, count"
scalar scenarioPRJP1.node[1].networkLayer.arp 	sentReq:count 	58
attr title  "ARP request sent, count"
scalar scenarioPRJP1.node[1].mobility 	startTime 	0.1
scalar scenarioPRJP1.node[1].mobility 	totalTime 	949.9
scalar scenarioPRJP1.node[1].mobility 	stopTime 	950
scalar scenarioPRJP1.node[1].mobility 	minSpeed 	2.4754831766591e-13
scalar scenarioPRJP1.node[1].mobility 	maxSpeed 	17.690304642027
scalar scenarioPRJP1.node[1].mobility 	totalDistance 	8931.3731926961
scalar scenarioPRJP1.node[1].mobility 	totalCO2Emission 	2471.6081187751
scalar scenarioPRJP1.node[1].wlan.mgmt 	dataQueueLen:max 	58
attr interpolationmode  sample-hold
attr title  "data queue length, max"
scalar scenarioPRJP1.node[1].wlan.mgmt 	dataQueueLen:timeavg 	0.00077418797965049
attr interpolationmode  sample-hold
attr title  "data queue length, timeavg"
scalar scenarioPRJP1.node[1].wlan.mgmt 	dropPkByQueue:count 	0
attr interpolationmode  none
attr source  dropPkByQueue
attr title  "packets dropped by queue, count"
scalar scenarioPRJP1.node[1].wlan.mgmt 	dropPkByQueue:sum(packetBytes) 	0
attr interpolationmode  none
attr source  dropPkByQueue
attr title  "packets dropped by queue, sum(packetBytes)"
scalar scenarioPRJP1.node[1].wlan.mac 	"number of received packets" 	5721
scalar scenarioPRJP1.node[1].wlan.mac 	"number of collisions" 	13012
scalar scenarioPRJP1.node[1].wlan.mac 	"number of internal collisions" 	0
scalar scenarioPRJP1.node[1].wlan.mac 	"number of retry for AC 0" 	8505
scalar scenarioPRJP1.node[1].wlan.mac 	"number of retry for AC 1" 	0
scalar scenarioPRJP1.node[1].wlan.mac 	"number of retry for AC 2" 	0
scalar scenarioPRJP1.node[1].wlan.mac 	"number of retry for AC 3" 	0
scalar scenarioPRJP1.node[1].wlan.mac 	"sent and received bits" 	14017720
scalar scenarioPRJP1.node[1].wlan.mac 	"sent packet within AC 0" 	647
scalar scenarioPRJP1.node[1].wlan.mac 	"sent packet within AC 1" 	0
scalar scenarioPRJP1.node[1].wlan.mac 	"sent packet within AC 2" 	0
scalar scenarioPRJP1.node[1].wlan.mac 	"sent packet within AC 3" 	0
scalar scenarioPRJP1.node[1].wlan.mac 	"sent in TXOP " 	0
scalar scenarioPRJP1.node[1].wlan.mac 	"sentWithoutRetry AC 0" 	573
scalar scenarioPRJP1.node[1].wlan.mac 	"sentWithoutRetry AC 1" 	0
scalar scenarioPRJP1.node[1].wlan.mac 	"sentWithoutRetry AC 2" 	0
scalar scenarioPRJP1.node[1].wlan.mac 	"sentWithoutRetry AC 3" 	0
scalar scenarioPRJP1.node[1].wlan.mac 	"numGivenUp AC 0" 	1390
scalar scenarioPRJP1.node[1].wlan.mac 	"numGivenUp AC 1" 	0
scalar scenarioPRJP1.node[1].wlan.mac 	"numGivenUp AC 2" 	0
scalar scenarioPRJP1.node[1].wlan.mac 	"numGivenUp AC 3" 	0
scalar scenarioPRJP1.node[1].wlan.mac 	"numDropped AC 0" 	21
scalar scenarioPRJP1.node[1].wlan.mac 	"numDropped AC 1" 	0
scalar scenarioPRJP1.node[1].wlan.mac 	"numDropped AC 2" 	0
scalar scenarioPRJP1.node[1].wlan.mac 	"numDropped AC 3" 	0
scalar scenarioPRJP1.node[1].wlan.mac 	rcvdPkFromLL:count 	91496
attr interpolationmode  none
attr source  packetReceivedFromLower
attr title  "packets received from lower layer, count"
scalar scenarioPRJP1.node[1].wlan.mac 	rcvdPkFromLL:sum(packetBytes) 	25556133
attr interpolationmode  none
attr source  packetReceivedFromLower
attr title  "packets received from lower layer, sum(packetBytes)"
scalar scenarioPRJP1.node[1].wlan.mac 	sentDownPk:count 	27345
attr interpolationmode  none
attr source  packetSentToLower
attr title  "packets sent to lower layer, count"
scalar scenarioPRJP1.node[1].wlan.mac 	sentDownPk:sum(packetBytes) 	7336353
attr interpolationmode  none
attr source  packetSentToLower
attr title  "packets sent to lower layer, sum(packetBytes)"
scalar scenarioPRJP1.node[1].wlan.mac 	rcvdPkFromHL:count 	13140
attr interpolationmode  none
attr source  packetReceivedFromUpper
attr title  "packets received from higher layer, count"
scalar scenarioPRJP1.node[1].wlan.mac 	rcvdPkFromHL:sum(packetBytes) 	2534814
attr interpolationmode  none
attr source  packetReceivedFromUpper
attr title  "packets received from higher layer, sum(packetBytes)"
scalar scenarioPRJP1.node[1].wlan.mac 	passedUpPk:count 	29255
attr interpolationmode  none
attr source  packetSentToUpper
attr title  "packets passed to higher layer, count"
scalar scenarioPRJP1.node[1].wlan.mac 	passedUpPk:sum(packetBytes) 	4520370
attr interpolationmode  none
attr source  packetSentToUpper
attr title  "packets passed to higher layer, sum(packetBytes)"
statistic scenarioPRJP1.node[1].wlan.radio 	radioChannel:histogram
field count 1
field mean 3
field stddev -nan
field sum 3
field sqrsum 9
field min 3
field max 3
attr interpolationmode  sample-hold
attr source  radioChannelChanged
attr title  "Radio channel, histogram"
bin	-INF	0
bin	2	0
bin	3	1
bin	4	0
scalar scenarioPRJP1.node[1].wlan.radio 	transmissionState:count 	109380
attr interpolationmode  sample-hold
attr source  transmissionStateChanged
attr title  "Radio transmission state, count"
scalar scenarioPRJP1.node[1].wlan.radio 	receptionState:count 	239580
attr interpolationmode  sample-hold
attr source  receptionStateChanged
attr title  "Radio reception state, count"
scalar scenarioPRJP1.node[1].wlan.radio 	radioMode:count 	54692
attr interpolationmode  sample-hold
attr source  radioModeChanged
attr title  "Radio mode, count"
statistic scenarioPRJP1.node[1].wlan.radio 	symbolErrorRate:histogram
field count 0
field mean -nan
field stddev -nan
field sum 0
field sqrsum 0
field min -nan
field max -nan
attr source  symbolErrorRate
attr title  "Symbol error rate, histogram"
bin	-INF	0
bin	-0.5	0
bin	-0.46666666666667	0
bin	-0.43333333333333	0
bin	-0.4	0
bin	-0.36666666666667	0
bin	-0.33333333333333	0
bin	-0.3	0
bin	-0.26666666666667	0
bin	-0.23333333333333	0
bin	-0.2	0
bin	-0.16666666666667	0
bin	-0.13333333333333	0
bin	-0.1	0
bin	-0.066666666666667	0
bin	-0.033333333333333	0
bin	-6.9388939039072e-18	0
bin	0.033333333333333	0
bin	0.066666666666667	0
bin	0.1	0
bin	0.13333333333333	0
bin	0.16666666666667	0
bin	0.2	0
bin	0.23333333333333	0
bin	0.26666666666667	0
bin	0.3	0
bin	0.33333333333333	0
bin	0.36666666666667	0
bin	0.4	0
bin	0.43333333333333	0
bin	0.46666666666667	0
bin	0.5	0
statistic scenarioPRJP1.node[1].wlan.radio 	bitErrorRate:histogram
field count 0
field mean -nan
field stddev -nan
field sum 0
field sqrsum 0
field min -nan
field max -nan
attr source  bitErrorRate
attr title  "Bit error rate, histogram"
bin	-INF	0
bin	-0.5	0
bin	-0.46666666666667	0
bin	-0.43333333333333	0
bin	-0.4	0
bin	-0.36666666666667	0
bin	-0.33333333333333	0
bin	-0.3	0
bin	-0.26666666666667	0
bin	-0.23333333333333	0
bin	-0.2	0
bin	-0.16666666666667	0
bin	-0.13333333333333	0
bin	-0.1	0
bin	-0.066666666666667	0
bin	-0.033333333333333	0
bin	-6.9388939039072e-18	0
bin	0.033333333333333	0
bin	0.066666666666667	0
bin	0.1	0
bin	0.13333333333333	0
bin	0.16666666666667	0
bin	0.2	0
bin	0.23333333333333	0
bin	0.26666666666667	0
bin	0.3	0
bin	0.33333333333333	0
bin	0.36666666666667	0
bin	0.4	0
bin	0.43333333333333	0
bin	0.46666666666667	0
bin	0.5	0
statistic scenarioPRJP1.node[1].wlan.radio 	packetErrorRate:histogram
field count 91496
field mean 0.12838498997209
field stddev 0.32601544957676
field sum 11746.713042487
field sqrsum 11232.745918489
field min 0
field max 1
attr source  packetErrorRate
attr title  "Packet error rate, histogram"
bin	-INF	0
bin	-8.9267012182703e-06	0
bin	-7.7364743891676e-06	0
bin	-6.5462475600649e-06	0
bin	-5.3560207309622e-06	0
bin	-4.1657939018595e-06	0
bin	-2.9755670727568e-06	0
bin	-1.7853402436541e-06	0
bin	-5.9511341455135e-07	70723
bin	5.9511341455136e-07	593
bin	1.7853402436541e-06	283
bin	2.9755670727568e-06	186
bin	4.1657939018595e-06	124
bin	5.3560207309622e-06	97
bin	6.5462475600649e-06	95
bin	7.7364743891676e-06	86
bin	8.9267012182703e-06	74
bin	1.0116928047373e-05	64
bin	1.1307154876476e-05	40
bin	1.2497381705578e-05	71
bin	1.3687608534681e-05	52
bin	1.4877835363784e-05	44
bin	1.6068062192887e-05	42
bin	1.7258289021989e-05	51
bin	1.8448515851092e-05	36
bin	1.9638742680195e-05	41
bin	2.0828969509297e-05	29
bin	2.20191963384e-05	22
bin	2.3209423167503e-05	33
bin	2.4399649996606e-05	19
bin	2.5589876825708e-05	24
bin	2.6780103654811e-05	18667
statistic scenarioPRJP1.node[1].wlan.radio 	minSNIR:histogram
field count 91496
field mean 5374.9447454133
field stddev 38128.333945589
field sum 491785944.42633
field sqrsum 1.3565599465479e+14
field min 0.00071188774423095
field max 753239.71659759
attr source  minSNIR
attr title  "Min SNIR, histogram"
bin	-INF	0
bin	-67024.258334804	0
bin	-58087.226192519	0
bin	-49150.194050235	0
bin	-40213.16190795	0
bin	-31276.129765665	0
bin	-22339.09762338	0
bin	-13402.065481096	0
bin	-4465.033338811	84824
bin	4471.9988034738	2404
bin	13409.030945758	1371
bin	22346.063088043	292
bin	31283.095230328	235
bin	40220.127372613	210
bin	49157.159514897	195
bin	58094.191657182	74
bin	67031.223799467	245
bin	75968.255941752	81
bin	84905.288084036	38
bin	93842.320226321	71
bin	102779.35236861	64
bin	111716.38451089	43
bin	120653.41665318	49
bin	129590.44879546	23
bin	138527.48093774	13
bin	147464.51308003	7
bin	156401.54522231	7
bin	165338.5773646	19
bin	174275.60950688	957
bin	183212.64164917	13
bin	192149.67379145	2
bin	201086.70593374	259
scalar scenarioPRJP1.node[1].lo0.lo 	droppedPkBitError:count 	0
attr interpolationmode  none
attr source  dropPkBitError
attr title  "packets dropped/bit error, count"
scalar scenarioPRJP1.node[1].lo0.lo 	droppedPkBitError:sum(packetBytes) 	0
attr interpolationmode  none
attr source  dropPkBitError
attr title  "packets dropped/bit error, sum(packetBytes)"
scalar scenarioPRJP1.node[1].lo0.lo 	rcvdPkFromHL:count 	0
attr interpolationmode  none
attr source  packetReceivedFromUpper
attr title  "packets received from higher layer, count"
scalar scenarioPRJP1.node[1].lo0.lo 	rcvdPkFromHL:sum(packetBytes) 	0
attr interpolationmode  none
attr source  packetReceivedFromUpper
attr title  "packets received from higher layer, sum(packetBytes)"
scalar scenarioPRJP1.node[1].lo0.lo 	passedUpPk:count 	0
attr interpolationmode  none
attr source  packetSentToUpper
attr title  "packets passed to higher layer, count"
scalar scenarioPRJP1.node[1].lo0.lo 	passedUpPk:sum(packetBytes) 	0
attr interpolationmode  none
attr source  packetSentToUpper
attr title  "packets passed to higher layer, sum(packetBytes)"
scalar scenarioPRJP1.node[21].app 	"Total sent" 	2607
scalar scenarioPRJP1.node[21].app 	"Total received" 	453
scalar scenarioPRJP1.node[21].app 	"Total deleted" 	60
scalar scenarioPRJP1.node[21].app 	dropPk:count 	60
attr interpolationmode  none
attr source  dropPk
attr title  "packets dropped, count"
scalar scenarioPRJP1.node[21].app 	dropPk:sum(packetBytes) 	30720
attr interpolationmode  none
attr source  dropPk
attr title  "packets dropped, sum(packetBytes)"
scalar scenarioPRJP1.node[21].app 	outOfOrderPk:count 	8
attr interpolationmode  none
attr source  outOfOrderPk
attr title  "packets received out of order, count"
scalar scenarioPRJP1.node[21].app 	outOfOrderPk:sum(packetBytes) 	4096
attr interpolationmode  none
attr source  outOfOrderPk
attr title  "packets received out of order, sum(packetBytes)"
scalar scenarioPRJP1.node[21].app 	rcvdPk:count 	453
attr interpolationmode  none
attr source  rcvdPk
attr title  "packets received, count"
scalar scenarioPRJP1.node[21].app 	rcvdPk:sum(packetBytes) 	231936
attr interpolationmode  none
attr source  rcvdPk
attr title  "packets received, sum(packetBytes)"
statistic scenarioPRJP1.node[21].app 	endToEndDelay:histogram
field count 453
field mean 4.4389631238974
field stddev 5.6686650390854
field sum 2010.8502951255
field sqrsum 23450.551330798
field min 0.000945045624
field max 19.611373415477
attr interpolationmode  none
attr source  messageAge(rcvdPk)
attr title  "delay, histogram"
attr unit  s
bin	-INF	0
bin	-9.418443739156	0
bin	-8.1625217552995	0
bin	-6.9065997714429	0
bin	-5.6506777875864	0
bin	-4.3947558037299	0
bin	-3.1388338198733	0
bin	-1.8829118360168	0
bin	-0.62698985216027	214
bin	0.62893213169627	26
bin	1.8848541155528	25
bin	3.1407760994093	25
bin	4.3966980832659	16
bin	5.6526200671224	8
bin	6.9085420509789	21
bin	8.1644640348355	22
bin	9.420386018692	22
bin	10.676308002549	11
bin	11.932229986405	17
bin	13.188151970262	8
bin	14.444073954118	12
bin	15.699995937975	2
bin	16.955917921831	13
bin	18.211839905688	8
bin	19.467761889544	3
bin	20.723683873401	0
bin	21.979605857257	0
bin	23.235527841114	0
bin	24.49144982497	0
bin	25.747371808827	0
bin	27.003293792683	0
bin	28.25921577654	0
scalar scenarioPRJP1.node[21].app 	sentPk:count 	2607
attr interpolationmode  none
attr source  sentPk
attr title  "packets sent, count"
scalar scenarioPRJP1.node[21].app 	sentPk:sum(packetBytes) 	1334784
attr interpolationmode  none
attr source  sentPk
attr title  "packets sent, sum(packetBytes)"
scalar scenarioPRJP1.node[21].udp 	droppedPkBadChecksum:count 	0
attr interpolationmode  none
attr title  "packets dropped (checksum error), count"
scalar scenarioPRJP1.node[21].udp 	droppedPkWrongPort:count 	0
attr interpolationmode  none
attr title  "packets dropped (wrong port), count"
scalar scenarioPRJP1.node[21].udp 	passedUpPk:count 	521
attr interpolationmode  none
attr title  "packets passed up, count"
scalar scenarioPRJP1.node[21].udp 	rcvdPk:count 	521
attr interpolationmode  none
attr source  rcvdPk
attr title  "packets received, count"
scalar scenarioPRJP1.node[21].udp 	rcvdPk:sum(packetBytes) 	270920
attr interpolationmode  none
attr source  rcvdPk
attr title  "packets received, sum(packetBytes)"
scalar scenarioPRJP1.node[21].udp 	sentPk:count 	2607
attr interpolationmode  none
attr source  sentPk
attr title  "packets sent, count"
scalar scenarioPRJP1.node[21].udp 	sentPk:sum(packetBytes) 	1355640
attr interpolationmode  none
attr source  sentPk
attr title  "packets sent, sum(packetBytes)"
scalar scenarioPRJP1.node[21].networkLayer.arp 	failedARPResolution:count 	2
attr title  "ARP failed resolutions, count"
scalar scenarioPRJP1.node[21].networkLayer.arp 	completedARPResolution:count 	199
attr title  "ARP completed resolutions, count"
scalar scenarioPRJP1.node[21].networkLayer.arp 	initiatedARPResolution:count 	45
attr title  "ARP initiated resolutions, count"
scalar scenarioPRJP1.node[21].networkLayer.arp 	sentReply:count 	32
attr title  "ARP replies sent, count"
scalar scenarioPRJP1.node[21].networkLayer.arp 	sentReq:count 	57
attr title  "ARP request sent, count"
scalar scenarioPRJP1.node[21].mobility 	startTime 	2.5
scalar scenarioPRJP1.node[21].mobility 	totalTime 	947.5
scalar scenarioPRJP1.node[21].mobility 	stopTime 	950
scalar scenarioPRJP1.node[21].mobility 	minSpeed 	2.4755481168014e-13
scalar scenarioPRJP1.node[21].mobility 	maxSpeed 	16.387180296062
scalar scenarioPRJP1.node[21].mobility 	totalDistance 	8771.2910457303
scalar scenarioPRJP1.node[21].mobility 	totalCO2Emission 	2263.6531715092
scalar scenarioPRJP1.node[21].wlan.mgmt 	dataQueueLen:max 	21
attr interpolationmode  sample-hold
attr title  "data queue length, max"
scalar scenarioPRJP1.node[21].wlan.mgmt 	dataQueueLen:timeavg 	0
attr interpolationmode  sample-hold
attr title  "data queue length, timeavg"
scalar scenarioPRJP1.node[21].wlan.mgmt 	dropPkByQueue:count 	0
attr interpolationmode  none
attr source  dropPkByQueue
attr title  "packets dropped by queue, count"
scalar scenarioPRJP1.node[21].wlan.mgmt 	dropPkByQueue:sum(packetBytes) 	0
attr interpolationmode  none
attr source  dropPkByQueue
attr title  "packets dropped by queue, sum(packetBytes)"
scalar scenarioPRJP1.node[21].wlan.mac 	"number of received packets" 	5491
scalar scenarioPRJP1.node[21].wlan.mac 	"number of collisions" 	11575
scalar scenarioPRJP1.node[21].wlan.mac 	"number of internal collisions" 	0
scalar scenarioPRJP1.node[21].wlan.mac 	"number of retry for AC 0" 	8307
scalar scenarioPRJP1.node[21].wlan.mac 	"number of retry for AC 1" 	0
scalar scenarioPRJP1.node[21].wlan.mac 	"number of retry for AC 2" 	0
scalar scenarioPRJP1.node[21].wlan.mac 	"number of retry for AC 3" 	0
scalar scenarioPRJP1.node[21].wlan.mac 	"sent and received bits" 	13029864
scalar scenarioPRJP1.node[21].wlan.mac 	"sent packet within AC 0" 	512
scalar scenarioPRJP1.node[21].wlan.mac 	"sent packet within AC 1" 	0
scalar scenarioPRJP1.node[21].wlan.mac 	"sent packet within AC 2" 	0
scalar scenarioPRJP1.node[21].wlan.mac 	"sent packet within AC 3" 	0
scalar scenarioPRJP1.node[21].wlan.mac 	"sent in TXOP " 	0
scalar scenarioPRJP1.node[21].wlan.mac 	"sentWithoutRetry AC 0" 	430
scalar scenarioPRJP1.node[21].wlan.mac 	"sentWithoutRetry AC 1" 	0
scalar scenarioPRJP1.node[21].wlan.mac 	"sentWithoutRetry AC 2" 	0
scalar scenarioPRJP1.node[21].wlan.mac 	"sentWithoutRetry AC 3" 	0
scalar scenarioPRJP1.node[21].wlan.mac 	"numGivenUp AC 0" 	1352
scalar scenarioPRJP1.node[21].wlan.mac 	"numGivenUp AC 1" 	0
scalar scenarioPRJP1.node[21].wlan.mac 	"numGivenUp AC 2" 	0
scalar scenarioPRJP1.node[21].wlan.mac 	"numGivenUp AC 3" 	0
scalar scenarioPRJP1.node[21].wlan.mac 	"numDropped AC 0" 	0
scalar scenarioPRJP1.node[21].wlan.mac 	"numDropped AC 1" 	0
scalar scenarioPRJP1.node[21].wlan.mac 	"numDropped AC 2" 	0
scalar scenarioPRJP1.node[21].wlan.mac 	"numDropped AC 3" 	0
scalar scenarioPRJP1.node[21].wlan.mac 	rcvdPkFromLL:count 	82094
attr interpolationmode  none
attr source  packetReceivedFromLower
attr title  "packets received from lower layer, count"
scalar scenarioPRJP1.node[21].wlan.mac 	rcvdPkFromLL:sum(packetBytes) 	22629584
attr interpolationmode  none
attr source  packetReceivedFromLower
attr title  "packets received from lower layer, sum(packetBytes)"
scalar scenarioPRJP1.node[21].wlan.mac 	sentDownPk:count 	26382
attr interpolationmode  none
attr source  packetSentToLower
attr title  "packets sent to lower layer, count"
scalar scenarioPRJP1.node[21].wlan.mac 	sentDownPk:sum(packetBytes) 	7078177
attr interpolationmode  none
attr source  packetSentToLower
attr title  "packets sent to lower layer, sum(packetBytes)"
scalar scenarioPRJP1.node[21].wlan.mac 	rcvdPkFromHL:count 	12584
attr interpolationmode  none
attr source  packetReceivedFromUpper
attr title  "packets received from higher layer, count"
scalar scenarioPRJP1.node[21].wlan.mac 	rcvdPkFromHL:sum(packetBytes) 	2380605
attr interpolationmode  none
attr source  packetReceivedFromUpper
attr title  "packets received from higher layer, sum(packetBytes)"
scalar scenarioPRJP1.node[21].wlan.mac 	passedUpPk:count 	27313
attr interpolationmode  none
attr source  packetSentToUpper
attr title  "packets passed to higher layer, count"
scalar scenarioPRJP1.node[21].wlan.mac 	passedUpPk:sum(packetBytes) 	4173624
attr interpolationmode  none
attr source  packetSentToUpper
attr title  "packets passed to higher layer, sum(packetBytes)"
statistic scenarioPRJP1.node[21].wlan.radio 	radioChannel:histogram
field count 1
field mean 3
field stddev -nan
field sum 3
field sqrsum 9
field min 3
field max 3
attr interpolationmode  sample-hold
attr source  radioChannelChanged
attr title  "Radio channel, histogram"
bin	-INF	0
bin	2	0
bin	3	1
bin	4	0
scalar scenarioPRJP1.node[21].wlan.radio 	transmissionState:count 	105528
attr interpolationmode  sample-hold
attr source  transmissionStateChanged
attr title  "Radio transmission state, count"
scalar scenarioPRJP1.node[21].wlan.radio 	receptionState:count 	218494
attr interpolationmode  sample-hold
attr source  receptionStateChanged
attr title  "Radio reception state, count"
scalar scenarioPRJP1.node[21].wlan.radio 	radioMode:count 	52766
attr interpolationmode  sample-hold
attr source  radioModeChanged
attr title  "Radio mode, count"
statistic scenarioPRJP1.node[21].wlan.radio 	symbolErrorRate:histogram
field count 0
field mean -nan
field stddev -nan
field sum 0
field sqrsum 0
field min -nan
field max -nan
attr source  symbolErrorRate
attr title  "Symbol error rate, histogram"
bin	-INF	0
bin	-0.5	0
bin	-0.46666666666667	0
bin	-0.43333333333333	0
bin	-0.4	0
bin	-0.36666666666667	0
bin	-0.33333333333333	0
bin	-0.3	0
bin	-0.26666666666667	0
bin	-0.23333333333333	0
bin	-0.2	0
bin	-0.16666666666667	0
bin	-0.13333333333333	0
bin	-0.1	0
bin	-0.066666666666667	0
bin	-0.033333333333333	0
bin	-6.9388939039072e-18	0
bin	0.033333333333333	0
bin	0.066666666666667	0
bin	0.1	0
bin	0.13333333333333	0
bin	0.16666666666667	0
bin	0.2	0
bin	0.23333333333333	0
bin	0.26666666666667	0
bin	0.3	0
bin	0.33333333333333	0
bin	0.36666666666667	0
bin	0.4	0
bin	0.43333333333333	0
bin	0.46666666666667	0
bin	0.5	0
statistic scenarioPRJP1.node[21].wlan.radio 	bitErrorRate:histogram
field count 0
field mean -nan
field stddev -nan
field sum 0
field sqrsum 0
field min -nan
field max -nan
attr source  bitErrorRate
attr title  "Bit error rate, histogram"
bin	-INF	0
bin	-0.5	0
bin	-0.46666666666667	0
bin	-0.43333333333333	0
bin	-0.4	0
bin	-0.36666666666667	0
bin	-0.33333333333333	0
bin	-0.3	0
bin	-0.26666666666667	0
bin	-0.23333333333333	0
bin	-0.2	0
bin	-0.16666666666667	0
bin	-0.13333333333333	0
bin	-0.1	0
bin	-0.066666666666667	0
bin	-0.033333333333333	0
bin	-6.9388939039072e-18	0
bin	0.033333333333333	0
bin	0.066666666666667	0
bin	0.1	0
bin	0.13333333333333	0
bin	0.16666666666667	0
bin	0.2	0
bin	0.23333333333333	0
bin	0.26666666666667	0
bin	0.3	0
bin	0.33333333333333	0
bin	0.36666666666667	0
bin	0.4	0
bin	0.43333333333333	0
bin	0.46666666666667	0
bin	0.5	0
statistic scenarioPRJP1.node[21].wlan.radio 	packetErrorRate:histogram
field count 82094
field mean 0.12452732916669
field stddev 0.32106518838427
field sum 10222.94656061
field sqrsum 9735.4170627019
field min 0
field max 1
attr source  packetErrorRate
attr title  "Packet error rate, histogram"
bin	-INF	0
bin	-1.1141521123581e-05	0
bin	-9.6559849737702e-06	0
bin	-8.1704488239594e-06	0
bin	-6.6849126741486e-06	0
bin	-5.1993765243378e-06	0
bin	-3.713840374527e-06	0
bin	-2.2283042247162e-06	0
bin	-7.427680749054e-07	63306
bin	7.427680749054e-07	620
bin	2.2283042247162e-06	278
bin	3.713840374527e-06	181
bin	5.1993765243378e-06	145
bin	6.6849126741486e-06	89
bin	8.1704488239594e-06	86
bin	9.6559849737702e-06	76
bin	1.1141521123581e-05	74
bin	1.2627057273392e-05	58
bin	1.4112593423203e-05	56
bin	1.5598129573013e-05	67
bin	1.7083665722824e-05	43
bin	1.8569201872635e-05	64
bin	2.0054738022446e-05	37
bin	2.1540274172257e-05	54
bin	2.3025810322067e-05	33
bin	2.4511346471878e-05	40
bin	2.5996882621689e-05	27
bin	2.74824187715e-05	30
bin	2.8967954921311e-05	23
bin	3.0453491071121e-05	28
bin	3.1939027220932e-05	30
bin	3.3424563370743e-05	16649
statistic scenarioPRJP1.node[21].wlan.radio 	minSNIR:histogram
field count 82094
field mean 5348.9013929009
field stddev 43068.585543446
field sum 439112710.94881
field sqrsum 1.5462332755436e+14
field min 0.00044025115132285
field max 753239.71923443
attr source  minSNIR
attr title  "Min SNIR, histogram"
bin	-INF	0
bin	-63382.064810665	0
bin	-54930.663660709	0
bin	-46479.262510752	0
bin	-38027.861360796	0
bin	-29576.46021084	0
bin	-21125.059060884	0
bin	-12673.657910928	0
bin	-4222.2567609714	76399
bin	4229.1443889848	2090
bin	12680.545538941	930
bin	21131.946688897	331
bin	29583.347838853	370
bin	38034.74898881	252
bin	46486.150138766	120
bin	54937.551288722	130
bin	63388.952438678	91
bin	71840.353588634	94
bin	80291.754738591	87
bin	88743.155888547	118
bin	97194.557038503	32
bin	105645.95818846	45
bin	114097.35933842	56
bin	122548.76048837	64
bin	131000.16163833	37
bin	139451.56278828	41
bin	147902.96393824	37
bin	156354.3650882	19
bin	164805.76623815	37
bin	173257.16738811	324
bin	181708.56853806	8
bin	190159.96968802	382
scalar scenarioPRJP1.node[21].lo0.lo 	droppedPkBitError:count 	0
attr interpolationmode  none
attr source  dropPkBitError
attr title  "packets dropped/bit error, count"
scalar scenarioPRJP1.node[21].lo0.lo 	droppedPkBitError:sum(packetBytes) 	0
attr interpolationmode  none
attr source  dropPkBitError
attr title  "packets dropped/bit error, sum(packetBytes)"
scalar scenarioPRJP1.node[21].lo0.lo 	rcvdPkFromHL:count 	0
attr interpolationmode  none
attr source  packetReceivedFromUpper
attr title  "packets received from higher layer, count"
scalar scenarioPRJP1.node[21].lo0.lo 	rcvdPkFromHL:sum(packetBytes) 	0
attr interpolationmode  none
attr source  packetReceivedFromUpper
attr title  "packets received from higher layer, sum(packetBytes)"
scalar scenarioPRJP1.node[21].lo0.lo 	passedUpPk:count 	0
attr interpolationmode  none
attr source  packetSentToUpper
attr title  "packets passed to higher layer, count"
scalar scenarioPRJP1.node[21].lo0.lo 	passedUpPk:sum(packetBytes) 	0
attr interpolationmode  none
attr source  packetSentToUpper
attr title  "packets passed to higher layer, sum(packetBytes)"
scalar scenarioPRJP1.node[2].app 	"Total sent" 	2607
scalar scenarioPRJP1.node[2].app 	"Total received" 	370
scalar scenarioPRJP1.node[2].app 	"Total deleted" 	65
scalar scenarioPRJP1.node[2].app 	dropPk:count 	65
attr interpolationmode  none
attr source  dropPk
attr title  "packets dropped, count"
scalar scenarioPRJP1.node[2].app 	dropPk:sum(packetBytes) 	33280
attr interpolationmode  none
attr source  dropPk
attr title  "packets dropped, sum(packetBytes)"
scalar scenarioPRJP1.node[2].app 	outOfOrderPk:count 	1
attr interpolationmode  none
attr source  outOfOrderPk
attr title  "packets received out of order, count"
scalar scenarioPRJP1.node[2].app 	outOfOrderPk:sum(packetBytes) 	512
attr interpolationmode  none
attr source  outOfOrderPk
attr title  "packets received out of order, sum(packetBytes)"
scalar scenarioPRJP1.node[2].app 	rcvdPk:count 	370
attr interpolationmode  none
attr source  rcvdPk
attr title  "packets received, count"
scalar scenarioPRJP1.node[2].app 	rcvdPk:sum(packetBytes) 	189440
attr interpolationmode  none
attr source  rcvdPk
attr title  "packets received, sum(packetBytes)"
statistic scenarioPRJP1.node[2].app 	endToEndDelay:histogram
field count 370
field mean 4.5932669822841
field stddev 6.0511309574562
field sum 1699.5087834451
field sqrsum 21317.670165021
field min 0.00094506881
field max 19.639333072257
attr interpolationmode  none
attr source  messageAge(rcvdPk)
attr title  "delay, histogram"
attr unit  s
bin	-INF	0
bin	-9.818248351671	0
bin	-8.5090225106075	0
bin	-7.1997966695441	0
bin	-5.8905708284806	0
bin	-4.5813449874171	0
bin	-3.2721191463537	0
bin	-1.9628933052902	0
bin	-0.65366746422673	189
bin	0.65555837683673	21
bin	1.9647842179002	11
bin	3.2740100589637	12
bin	4.5832359000271	13
bin	5.8924617410906	16
bin	7.2016875821541	12
bin	8.5109134232175	10
bin	9.820139264281	17
bin	11.129365105344	12
bin	12.438590946408	15
bin	13.747816787471	7
bin	15.057042628535	10
bin	16.366268469598	11
bin	17.675494310662	8
bin	18.984720151725	6
bin	20.293945992789	0
bin	21.603171833852	0
bin	22.912397674916	0
bin	24.221623515979	0
bin	25.530849357043	0
bin	26.840075198106	0
bin	28.14930103917	0
bin	29.458526880233	0
scalar scenarioPRJP1.node[2].app 	sentPk:count 	2607
attr interpolationmode  none
attr source  sentPk
attr title  "packets sent, count"
scalar scenarioPRJP1.node[2].app 	sentPk:sum(packetBytes) 	1334784
attr interpolationmode  none
attr source  sentPk
attr title  "packets sent, sum(packetBytes)"
scalar scenarioPRJP1.node[2].udp 	droppedPkBadChecksum:count 	0
attr interpolationmode  none
attr title  "packets dropped (checksum error), count"
scalar scenarioPRJP1.node[2].udp 	droppedPkWrongPort:count 	0
attr interpolationmode  none
attr title  "packets dropped (wrong port), count"
scalar scenarioPRJP1.node[2].udp 	passedUpPk:count 	436
attr interpolationmode  none
attr title  "packets passed up, count"
scalar scenarioPRJP1.node[2].udp 	rcvdPk:count 	436
attr interpolationmode  none
attr source  rcvdPk
attr title  "packets received, count"
scalar scenarioPRJP1.node[2].udp 	rcvdPk:sum(packetBytes) 	226720
attr interpolationmode  none
attr source  rcvdPk
attr title  "packets received, sum(packetBytes)"
scalar scenarioPRJP1.node[2].udp 	sentPk:count 	2607
attr interpolationmode  none
attr source  sentPk
attr title  "packets sent, count"
scalar scenarioPRJP1.node[2].udp 	sentPk:sum(packetBytes) 	1355640
attr interpolationmode  none
attr source  sentPk
attr title  "packets sent, sum(packetBytes)"
scalar scenarioPRJP1.node[2].networkLayer.arp 	failedARPResolution:count 	0
attr title  "ARP failed resolutions, count"
scalar scenarioPRJP1.node[2].networkLayer.arp 	completedARPResolution:count 	165
attr title  "ARP completed resolutions, count"
scalar scenarioPRJP1.node[2].networkLayer.arp 	initiatedARPResolution:count 	42
attr title  "ARP initiated resolutions, count"
scalar scenarioPRJP1.node[2].networkLayer.arp 	sentReply:count 	26
attr title  "ARP replies sent, count"
scalar scenarioPRJP1.node[2].networkLayer.arp 	sentReq:count 	54
attr title  "ARP request sent, count"
scalar scenarioPRJP1.node[2].mobility 	startTime 	0.1
scalar scenarioPRJP1.node[2].mobility 	totalTime 	949.9
scalar scenarioPRJP1.node[2].mobility 	stopTime 	950
scalar scenarioPRJP1.node[2].mobility 	minSpeed 	2.4757257195943e-13
scalar scenarioPRJP1.node[2].mobility 	maxSpeed 	15.662904752582
scalar scenarioPRJP1.node[2].mobility 	totalDistance 	9296.1209075912
scalar scenarioPRJP1.node[2].mobility 	totalCO2Emission 	2324.5858958652
scalar scenarioPRJP1.node[2].wlan.mgmt 	dataQueueLen:max 	46
attr interpolationmode  sample-hold
attr title  "data queue length, max"
scalar scenarioPRJP1.node[2].wlan.mgmt 	dataQueueLen:timeavg 	0
attr interpolationmode  sample-hold
attr title  "data queue length, timeavg"
scalar scenarioPRJP1.node[2].wlan.mgmt 	dropPkByQueue:count 	0
attr interpolationmode  none
attr source  dropPkByQueue
attr title  "packets dropped by queue, count"
scalar scenarioPRJP1.node[2].wlan.mgmt 	dropPkByQueue:sum(packetBytes) 	0
attr interpolationmode  none
attr source  dropPkByQueue
attr title  "packets dropped by queue, sum(packetBytes)"
scalar scenarioPRJP1.node[2].wlan.mac 	"number of received packets" 	4441
scalar scenarioPRJP1.node[2].wlan.mac 	"number of collisions" 	10309
scalar scenarioPRJP1.node[2].wlan.mac 	"number of internal collisions" 	0
scalar scenarioPRJP1.node[2].wlan.mac 	"number of retry for AC 0" 	6750
scalar scenarioPRJP1.node[2].wlan.mac 	"number of retry for AC 1" 	0
scalar scenarioPRJP1.node[2].wlan.mac 	"number of retry for AC 2" 	0
scalar scenarioPRJP1.node[2].wlan.mac 	"number of retry for AC 3" 	0
scalar scenarioPRJP1.node[2].wlan.mac 	"sent and received bits" 	12211912
scalar scenarioPRJP1.node[2].wlan.mac 	"sent packet within AC 0" 	482
scalar scenarioPRJP1.node[2].wlan.mac 	"sent packet within AC 1" 	0
scalar scenarioPRJP1.node[2].wlan.mac 	"sent packet within AC 2" 	0
scalar scenarioPRJP1.node[2].wlan.mac 	"sent packet within AC 3" 	0
scalar scenarioPRJP1.node[2].wlan.mac 	"sent in TXOP " 	0
scalar scenarioPRJP1.node[2].wlan.mac 	"sentWithoutRetry AC 0" 	406
scalar scenarioPRJP1.node[2].wlan.mac 	"sentWithoutRetry AC 1" 	0
scalar scenarioPRJP1.node[2].wlan.mac 	"sentWithoutRetry AC 2" 	0
scalar scenarioPRJP1.node[2].wlan.mac 	"sentWithoutRetry AC 3" 	0
scalar scenarioPRJP1.node[2].wlan.mac 	"numGivenUp AC 0" 	1095
scalar scenarioPRJP1.node[2].wlan.mac 	"numGivenUp AC 1" 	0
scalar scenarioPRJP1.node[2].wlan.mac 	"numGivenUp AC 2" 	0
scalar scenarioPRJP1.node[2].wlan.mac 	"numGivenUp AC 3" 	0
scalar scenarioPRJP1.node[2].wlan.mac 	"numDropped AC 0" 	0
scalar scenarioPRJP1.node[2].wlan.mac 	"numDropped AC 1" 	0
scalar scenarioPRJP1.node[2].wlan.mac 	"numDropped AC 2" 	0
scalar scenarioPRJP1.node[2].wlan.mac 	"numDropped AC 3" 	0
scalar scenarioPRJP1.node[2].wlan.mac 	rcvdPkFromLL:count 	68650
attr interpolationmode  none
attr source  packetReceivedFromLower
attr title  "packets received from lower layer, count"
scalar scenarioPRJP1.node[2].wlan.mac 	rcvdPkFromLL:sum(packetBytes) 	17833285
attr interpolationmode  none
attr source  packetReceivedFromLower
attr title  "packets received from lower layer, sum(packetBytes)"
scalar scenarioPRJP1.node[2].wlan.mac 	sentDownPk:count 	23179
attr interpolationmode  none
attr source  packetSentToLower
attr title  "packets sent to lower layer, count"
scalar scenarioPRJP1.node[2].wlan.mac 	sentDownPk:sum(packetBytes) 	5971163
attr interpolationmode  none
attr source  packetSentToLower
attr title  "packets sent to lower layer, sum(packetBytes)"
scalar scenarioPRJP1.node[2].wlan.mac 	rcvdPkFromHL:count 	11988
attr interpolationmode  none
attr source  packetReceivedFromUpper
attr title  "packets received from higher layer, count"
scalar scenarioPRJP1.node[2].wlan.mac 	rcvdPkFromHL:sum(packetBytes) 	2137749
attr interpolationmode  none
attr source  packetReceivedFromUpper
attr title  "packets received from higher layer, sum(packetBytes)"
scalar scenarioPRJP1.node[2].wlan.mac 	passedUpPk:count 	25773
attr interpolationmode  none
attr source  packetSentToUpper
attr title  "packets passed to higher layer, count"
scalar scenarioPRJP1.node[2].wlan.mac 	passedUpPk:sum(packetBytes) 	3800783
attr interpolationmode  none
attr source  packetSentToUpper
attr title  "packets passed to higher layer, sum(packetBytes)"
statistic scenarioPRJP1.node[2].wlan.radio 	radioChannel:histogram
field count 1
field mean 3
field stddev -nan
field sum 3
field sqrsum 9
field min 3
field max 3
attr interpolationmode  sample-hold
attr source  radioChannelChanged
attr title  "Radio channel, histogram"
bin	-INF	0
bin	2	0
bin	3	1
bin	4	0
scalar scenarioPRJP1.node[2].wlan.radio 	transmissionState:count 	92716
attr interpolationmode  sample-hold
attr source  transmissionStateChanged
attr title  "Radio transmission state, count"
scalar scenarioPRJP1.node[2].wlan.radio 	receptionState:count 	185260
attr interpolationmode  sample-hold
attr source  receptionStateChanged
attr title  "Radio reception state, count"
scalar scenarioPRJP1.node[2].wlan.radio 	radioMode:count 	46360
attr interpolationmode  sample-hold
attr source  radioModeChanged
attr title  "Radio mode, count"
statistic scenarioPRJP1.node[2].wlan.radio 	symbolErrorRate:histogram
field count 0
field mean -nan
field stddev -nan
field sum 0
field sqrsum 0
field min -nan
field max -nan
attr source  symbolErrorRate
attr title  "Symbol error rate, histogram"
bin	-INF	0
bin	-0.5	0
bin	-0.46666666666667	0
bin	-0.43333333333333	0
bin	-0.4	0
bin	-0.36666666666667	0
bin	-0.33333333333333	0
bin	-0.3	0
bin	-0.26666666666667	0
bin	-0.23333333333333	0
bin	-0.2	0
bin	-0.16666666666667	0
bin	-0.13333333333333	0
bin	-0.1	0
bin	-0.066666666666667	0
bin	-0.033333333333333	0
bin	-6.9388939039072e-18	0
bin	0.033333333333333	0
bin	0.066666666666667	0
bin	0.1	0
bin	0.13333333333333	0
bin	0.16666666666667	0
bin	0.2	0
bin	0.23333333333333	0
bin	0.26666666666667	0
bin	0.3	0
bin	0.33333333333333	0
bin	0.36666666666667	0
bin	0.4	0
bin	0.43333333333333	0
bin	0.46666666666667	0
bin	0.5	0
statistic scenarioPRJP1.node[2].wlan.radio 	bitErrorRate:histogram
field count 0
field mean -nan
field stddev -nan
field sum 0
field sqrsum 0
field min -nan
field max -nan
attr source  bitErrorRate
attr title  "Bit error rate, histogram"
bin	-INF	0
bin	-0.5	0
bin	-0.46666666666667	0
bin	-0.43333333333333	0
bin	-0.4	0
bin	-0.36666666666667	0
bin	-0.33333333333333	0
bin	-0.3	0
bin	-0.26666666666667	0
bin	-0.23333333333333	0
bin	-0.2	0
bin	-0.16666666666667	0
bin	-0.13333333333333	0
bin	-0.1	0
bin	-0.066666666666667	0
bin	-0.033333333333333	0
bin	-6.9388939039072e-18	0
bin	0.033333333333333	0
bin	0.066666666666667	0
bin	0.1	0
bin	0.13333333333333	0
bin	0.16666666666667	0
bin	0.2	0
bin	0.23333333333333	0
bin	0.26666666666667	0
bin	0.3	0
bin	0.33333333333333	0
bin	0.36666666666667	0
bin	0.4	0
bin	0.43333333333333	0
bin	0.46666666666667	0
bin	0.5	0
statistic scenarioPRJP1.node[2].wlan.radio 	packetErrorRate:histogram
field count 68650
field mean 0.13284684833834
field stddev 0.33014468212436
field sum 9119.9361384269
field sqrsum 8693.9876169432
field min 0
field max 1
attr source  packetErrorRate
attr title  "Packet error rate, histogram"
bin	-INF	0
bin	-0.5	0
bin	-0.43333333333333	0
bin	-0.36666666666667	0
bin	-0.3	0
bin	-0.23333333333333	0
bin	-0.16666666666667	0
bin	-0.1	0
bin	-0.033333333333333	57733
bin	0.033333333333333	726
bin	0.1	387
bin	0.16666666666667	226
bin	0.23333333333333	189
bin	0.3	178
bin	0.36666666666667	158
bin	0.43333333333333	98
bin	0.5	119
bin	0.56666666666667	85
bin	0.63333333333333	112
bin	0.7	107
bin	0.76666666666667	111
bin	0.83333333333333	134
bin	0.9	210
bin	0.96666666666667	8077
bin	1.0333333333333	0
bin	1.1	0
bin	1.1666666666667	0
bin	1.2333333333333	0
bin	1.3	0
bin	1.3666666666667	0
bin	1.4333333333333	0
bin	1.5	0
statistic scenarioPRJP1.node[2].wlan.radio 	minSNIR:histogram
field count 68650
field mean 8370.5200604863
field stddev 65260.499392626
field sum 574636202.15239
field sqrsum 2.9718148033875e+14
field min 0.00016865208610253
field max 1062194.5414493
attr source  minSNIR
attr title  "Min SNIR, histogram"
bin	-INF	0
bin	-12598.947493815	0
bin	-10918.922766532	0
bin	-9238.8980392491	0
bin	-7558.873311966	0
bin	-5878.848584683	0
bin	-4198.8238573999	0
bin	-2518.7991301168	0
bin	-838.77440283379	58705
bin	841.25032444926	3088
bin	2521.2750517323	1229
bin	4201.2997790154	761
bin	5881.3245062984	574
bin	7561.3492335815	408
bin	9241.3739608645	330
bin	10921.398688148	335
bin	12601.423415431	228
bin	14281.448142714	201
bin	15961.472869997	154
bin	17641.49759728	222
bin	19321.522324563	98
bin	21001.547051846	197
bin	22681.571779129	66
bin	24361.596506412	90
bin	26041.621233695	52
bin	27721.645960978	20
bin	29401.670688261	27
bin	31081.695415544	43
bin	32761.720142827	20
bin	34441.74487011	25
bin	36121.769597393	21
bin	37801.794324676	1756
scalar scenarioPRJP1.node[2].lo0.lo 	droppedPkBitError:count 	0
attr interpolationmode  none
attr source  dropPkBitError
attr title  "packets dropped/bit error, count"
scalar scenarioPRJP1.node[2].lo0.lo 	droppedPkBitError:sum(packetBytes) 	0
attr interpolationmode  none
attr source  dropPkBitError
attr title  "packets dropped/bit error, sum(packetBytes)"
scalar scenarioPRJP1.node[2].lo0.lo 	rcvdPkFromHL:count 	0
attr interpolationmode  none
attr source  packetReceivedFromUpper
attr title  "packets received from higher layer, count"
scalar scenarioPRJP1.node[2].lo0.lo 	rcvdPkFromHL:sum(packetBytes) 	0
attr interpolationmode  none
attr source  packetReceivedFromUpper
attr title  "packets received from higher layer, sum(packetBytes)"
scalar scenarioPRJP1.node[2].lo0.lo 	passedUpPk:count 	0
attr interpolationmode  none
attr source  packetSentToUpper
attr title  "packets passed to higher layer, count"
scalar scenarioPRJP1.node[2].lo0.lo 	passedUpPk:sum(packetBytes) 	0
attr interpolationmode  none
attr source  packetSentToUpper
attr title  "packets passed to higher layer, sum(packetBytes)"
scalar scenarioPRJP1.node[22].app 	"Total sent" 	2609
scalar scenarioPRJP1.node[22].app 	"Total received" 	569
scalar scenarioPRJP1.node[22].app 	"Total deleted" 	96
scalar scenarioPRJP1.node[22].app 	dropPk:count 	96
attr interpolationmode  none
attr source  dropPk
attr title  "packets dropped, count"
scalar scenarioPRJP1.node[22].app 	dropPk:sum(packetBytes) 	49152
attr interpolationmode  none
attr source  dropPk
attr title  "packets dropped, sum(packetBytes)"
scalar scenarioPRJP1.node[22].app 	outOfOrderPk:count 	4
attr interpolationmode  none
attr source  outOfOrderPk
attr title  "packets received out of order, count"
scalar scenarioPRJP1.node[22].app 	outOfOrderPk:sum(packetBytes) 	2048
attr interpolationmode  none
attr source  outOfOrderPk
attr title  "packets received out of order, sum(packetBytes)"
scalar scenarioPRJP1.node[22].app 	rcvdPk:count 	569
attr interpolationmode  none
attr source  rcvdPk
attr title  "packets received, count"
scalar scenarioPRJP1.node[22].app 	rcvdPk:sum(packetBytes) 	291328
attr interpolationmode  none
attr source  rcvdPk
attr title  "packets received, sum(packetBytes)"
statistic scenarioPRJP1.node[22].app 	endToEndDelay:histogram
field count 569
field mean 4.8923323171757
field stddev 6.008995256047
field sum 2783.737088473
field sqrsum 34128.324545184
field min 0.000945063148
field max 19.947773882577
attr interpolationmode  none
attr source  messageAge(rcvdPk)
attr title  "delay, histogram"
attr unit  s
bin	-INF	0
bin	-9.92697149939	0
bin	-8.6032492910516	0
bin	-7.2795270827132	0
bin	-5.9558048743748	0
bin	-4.6320826660364	0
bin	-3.308360457698	0
bin	-1.9846382493596	0
bin	-0.6609160410212	267
bin	0.6628061673172	30
bin	1.9865283756556	24
bin	3.310250583994	15
bin	4.6339727923324	29
bin	5.9576950006708	25
bin	7.2814172090092	25
bin	8.6051394173476	19
bin	9.928861625686	26
bin	11.252583834024	20
bin	12.576306042363	17
bin	13.900028250701	20
bin	15.22375045904	22
bin	16.547472667378	11
bin	17.871194875716	11
bin	19.194917084055	8
bin	20.518639292393	0
bin	21.842361500732	0
bin	23.16608370907	0
bin	24.489805917408	0
bin	25.813528125747	0
bin	27.137250334085	0
bin	28.460972542424	0
bin	29.784694750762	0
scalar scenarioPRJP1.node[22].app 	sentPk:count 	2609
attr interpolationmode  none
attr source  sentPk
attr title  "packets sent, count"
scalar scenarioPRJP1.node[22].app 	sentPk:sum(packetBytes) 	1335808
attr interpolationmode  none
attr source  sentPk
attr title  "packets sent, sum(packetBytes)"
scalar scenarioPRJP1.node[22].udp 	droppedPkBadChecksum:count 	0
attr interpolationmode  none
attr title  "packets dropped (checksum error), count"
scalar scenarioPRJP1.node[22].udp 	droppedPkWrongPort:count 	0
attr interpolationmode  none
attr title  "packets dropped (wrong port), count"
scalar scenarioPRJP1.node[22].udp 	passedUpPk:count 	669
attr interpolationmode  none
attr title  "packets passed up, count"
scalar scenarioPRJP1.node[22].udp 	rcvdPk:count 	669
attr interpolationmode  none
attr source  rcvdPk
attr title  "packets received, count"
scalar scenarioPRJP1.node[22].udp 	rcvdPk:sum(packetBytes) 	347880
attr interpolationmode  none
attr source  rcvdPk
attr title  "packets received, sum(packetBytes)"
scalar scenarioPRJP1.node[22].udp 	sentPk:count 	2609
attr interpolationmode  none
attr source  sentPk
attr title  "packets sent, count"
scalar scenarioPRJP1.node[22].udp 	sentPk:sum(packetBytes) 	1356680
attr interpolationmode  none
attr source  sentPk
attr title  "packets sent, sum(packetBytes)"
scalar scenarioPRJP1.node[22].networkLayer.arp 	failedARPResolution:count 	1
attr title  "ARP failed resolutions, count"
scalar scenarioPRJP1.node[22].networkLayer.arp 	completedARPResolution:count 	259
attr title  "ARP completed resolutions, count"
scalar scenarioPRJP1.node[22].networkLayer.arp 	initiatedARPResolution:count 	60
attr title  "ARP initiated resolutions, count"
scalar scenarioPRJP1.node[22].networkLayer.arp 	sentReply:count 	42
attr title  "ARP replies sent, count"
scalar scenarioPRJP1.node[22].networkLayer.arp 	sentReq:count 	80
attr title  "ARP request sent, count"
scalar scenarioPRJP1.node[22].mobility 	startTime 	2.5
scalar scenarioPRJP1.node[22].mobility 	totalTime 	947.5
scalar scenarioPRJP1.node[22].mobility 	stopTime 	950
scalar scenarioPRJP1.node[22].mobility 	minSpeed 	2.4754624567407e-13
scalar scenarioPRJP1.node[22].mobility 	maxSpeed 	16.12553562562
scalar scenarioPRJP1.node[22].mobility 	totalDistance 	10363.564267772
scalar scenarioPRJP1.node[22].mobility 	totalCO2Emission 	2436.8381651033
scalar scenarioPRJP1.node[22].wlan.mgmt 	dataQueueLen:max 	34
attr interpolationmode  sample-hold
attr title  "data queue length, max"
scalar scenarioPRJP1.node[22].wlan.mgmt 	dataQueueLen:timeavg 	0.0007767880677847
attr interpolationmode  sample-hold
attr title  "data queue length, timeavg"
scalar scenarioPRJP1.node[22].wlan.mgmt 	dropPkByQueue:count 	0
attr interpolationmode  none
attr source  dropPkByQueue
attr title  "packets dropped by queue, count"
scalar scenarioPRJP1.node[22].wlan.mgmt 	dropPkByQueue:sum(packetBytes) 	0
attr interpolationmode  none
attr source  dropPkByQueue
attr title  "packets dropped by queue, sum(packetBytes)"
scalar scenarioPRJP1.node[22].wlan.mac 	"number of received packets" 	6660
scalar scenarioPRJP1.node[22].wlan.mac 	"number of collisions" 	20792
scalar scenarioPRJP1.node[22].wlan.mac 	"number of internal collisions" 	0
scalar scenarioPRJP1.node[22].wlan.mac 	"number of retry for AC 0" 	10977
scalar scenarioPRJP1.node[22].wlan.mac 	"number of retry for AC 1" 	0
scalar scenarioPRJP1.node[22].wlan.mac 	"number of retry for AC 2" 	0
scalar scenarioPRJP1.node[22].wlan.mac 	"number of retry for AC 3" 	0
scalar scenarioPRJP1.node[22].wlan.mac 	"sent and received bits" 	15120408
scalar scenarioPRJP1.node[22].wlan.mac 	"sent packet within AC 0" 	705
scalar scenarioPRJP1.node[22].wlan.mac 	"sent packet within AC 1" 	0
scalar scenarioPRJP1.node[22].wlan.mac 	"sent packet within AC 2" 	0
scalar scenarioPRJP1.node[22].wlan.mac 	"sent packet within AC 3" 	0
scalar scenarioPRJP1.node[22].wlan.mac 	"sent in TXOP " 	0
scalar scenarioPRJP1.node[22].wlan.mac 	"sentWithoutRetry AC 0" 	616
scalar scenarioPRJP1.node[22].wlan.mac 	"sentWithoutRetry AC 1" 	0
scalar scenarioPRJP1.node[22].wlan.mac 	"sentWithoutRetry AC 2" 	0
scalar scenarioPRJP1.node[22].wlan.mac 	"sentWithoutRetry AC 3" 	0
scalar scenarioPRJP1.node[22].wlan.mac 	"numGivenUp AC 0" 	1797
scalar scenarioPRJP1.node[22].wlan.mac 	"numGivenUp AC 1" 	0
scalar scenarioPRJP1.node[22].wlan.mac 	"numGivenUp AC 2" 	0
scalar scenarioPRJP1.node[22].wlan.mac 	"numGivenUp AC 3" 	0
scalar scenarioPRJP1.node[22].wlan.mac 	"numDropped AC 0" 	34
scalar scenarioPRJP1.node[22].wlan.mac 	"numDropped AC 1" 	0
scalar scenarioPRJP1.node[22].wlan.mac 	"numDropped AC 2" 	0
scalar scenarioPRJP1.node[22].wlan.mac 	"numDropped AC 3" 	0
scalar scenarioPRJP1.node[22].wlan.mac 	rcvdPkFromLL:count 	122596
attr interpolationmode  none
attr source  packetReceivedFromLower
attr title  "packets received from lower layer, count"
scalar scenarioPRJP1.node[22].wlan.mac 	rcvdPkFromLL:sum(packetBytes) 	33209528
attr interpolationmode  none
attr source  packetReceivedFromLower
attr title  "packets received from lower layer, sum(packetBytes)"
scalar scenarioPRJP1.node[22].wlan.mac 	sentDownPk:count 	31935
attr interpolationmode  none
attr source  packetSentToLower
attr title  "packets sent to lower layer, count"
scalar scenarioPRJP1.node[22].wlan.mac 	sentDownPk:sum(packetBytes) 	9106943
attr interpolationmode  none
attr source  packetSentToLower
[...]
attr interpolationmode  none
attr source  packetSentToUpper
attr title  "packets passed to higher layer, sum(packetBytes)"
statistic scenarioPRJP1.node[19].wlan.radio 	radioChannel:histogram
field count 1
field mean 3
field stddev -nan
field sum 3
field sqrsum 9
field min 3
field max 3
attr interpolationmode  sample-hold
attr source  radioChannelChanged
attr title  "Radio channel, histogram"
bin	-INF	0
bin	2	0
bin	3	1
bin	4	0
scalar scenarioPRJP1.node[19].wlan.radio 	transmissionState:count 	91916
attr interpolationmode  sample-hold
attr source  transmissionStateChanged
attr title  "Radio transmission state, count"
scalar scenarioPRJP1.node[19].wlan.radio 	receptionState:count 	260861
attr interpolationmode  sample-hold
attr source  receptionStateChanged
attr title  "Radio reception state, count"
scalar scenarioPRJP1.node[19].wlan.radio 	radioMode:count 	45960
attr interpolationmode  sample-hold
attr source  radioModeChanged
attr title  "Radio mode, count"
statistic scenarioPRJP1.node[19].wlan.radio 	symbolErrorRate:histogram
field count 0
field mean -nan
field stddev -nan
field sum 0
field sqrsum 0
field min -nan
field max -nan
attr source  symbolErrorRate
attr title  "Symbol error rate, histogram"
bin	-INF	0
bin	-0.5	0
bin	-0.46666666666667	0
bin	-0.43333333333333	0
bin	-0.4	0
bin	-0.36666666666667	0
bin	-0.33333333333333	0
bin	-0.3	0
bin	-0.26666666666667	0
bin	-0.23333333333333	0
bin	-0.2	0
bin	-0.16666666666667	0
bin	-0.13333333333333	0
bin	-0.1	0
bin	-0.066666666666667	0
bin	-0.033333333333333	0
bin	-6.9388939039072e-18	0
bin	0.033333333333333	0
bin	0.066666666666667	0
bin	0.1	0
bin	0.13333333333333	0
bin	0.16666666666667	0
bin	0.2	0
bin	0.23333333333333	0
bin	0.26666666666667	0
bin	0.3	0
bin	0.33333333333333	0
bin	0.36666666666667	0
bin	0.4	0
bin	0.43333333333333	0
bin	0.46666666666667	0
bin	0.5	0
statistic scenarioPRJP1.node[19].wlan.radio 	bitErrorRate:histogram
field count 0
field mean -nan
field stddev -nan
field sum 0
field sqrsum 0
field min -nan
field max -nan
attr source  bitErrorRate
attr title  "Bit error rate, histogram"
bin	-INF	0
bin	-0.5	0
bin	-0.46666666666667	0
bin	-0.43333333333333	0
bin	-0.4	0
bin	-0.36666666666667	0
bin	-0.33333333333333	0
bin	-0.3	0
bin	-0.26666666666667	0
bin	-0.23333333333333	0
bin	-0.2	0
bin	-0.16666666666667	0
bin	-0.13333333333333	0
bin	-0.1	0
bin	-0.066666666666667	0
bin	-0.033333333333333	0
bin	-6.9388939039072e-18	0
bin	0.033333333333333	0
bin	0.066666666666667	0
bin	0.1	0
bin	0.13333333333333	0
bin	0.16666666666667	0
bin	0.2	0
bin	0.23333333333333	0
bin	0.26666666666667	0
bin	0.3	0
bin	0.33333333333333	0
bin	0.36666666666667	0
bin	0.4	0
bin	0.43333333333333	0
bin	0.46666666666667	0
bin	0.5	0
statistic scenarioPRJP1.node[19].wlan.radio 	packetErrorRate:histogram
field count 106251
field mean 0.12456815292784
field stddev 0.32116937077375
field sum 13235.490816735
field sqrsum 12608.383145975
field min 0
field max 1
attr source  packetErrorRate
attr title  "Packet error rate, histogram"
bin	-INF	0
bin	-0.5	0
bin	-0.43333333333333	0
bin	-0.36666666666667	0
bin	-0.3	0
bin	-0.23333333333333	0
bin	-0.16666666666667	0
bin	-0.1	0
bin	-0.033333333333333	90327
bin	0.033333333333333	1162
bin	0.1	555
bin	0.16666666666667	334
bin	0.23333333333333	241
bin	0.3	210
bin	0.36666666666667	226
bin	0.43333333333333	194
bin	0.5	171
bin	0.56666666666667	150
bin	0.63333333333333	146
bin	0.7	157
bin	0.76666666666667	181
bin	0.83333333333333	185
bin	0.9	342
bin	0.96666666666667	11670
bin	1.0333333333333	0
bin	1.1	0
bin	1.1666666666667	0
bin	1.2333333333333	0
bin	1.3	0
bin	1.3666666666667	0
bin	1.4333333333333	0
bin	1.5	0
statistic scenarioPRJP1.node[19].wlan.radio 	minSNIR:histogram
field count 106251
field mean 6034.4869233167
field stddev 45286.771589236
field sum 641170270.08932
field sqrsum 2.2177637471414e+14
field min 0.00017127030542424
field max 753239.71923443
attr source  minSNIR
attr title  "Min SNIR, histogram"
bin	-INF	0
bin	-79781.446451556	0
bin	-69143.841470286	0
bin	-58506.236489015	0
bin	-47868.631507745	0
bin	-37231.026526474	0
bin	-26593.421545204	0
bin	-15955.816563934	0
bin	-5318.2115826631	96767
bin	5319.3933986073	4307
bin	15956.998379878	1753
bin	26594.603361148	410
bin	37232.208342418	522
bin	47869.813323689	402
bin	58507.418304959	324
bin	69145.02328623	243
bin	79782.6282675	125
bin	90420.23324877	65
bin	101057.83823004	58
bin	111695.44321131	37
bin	122333.04819258	43
bin	132970.65317385	355
bin	143608.25815512	97
bin	154245.86313639	25
bin	164883.46811766	112
bin	175521.07309893	75
bin	186158.6780802	20
bin	196796.28306147	12
bin	207433.88804274	4
bin	218071.49302402	7
bin	228709.09800529	9
bin	239346.70298656	479
scalar scenarioPRJP1.node[19].lo0.lo 	droppedPkBitError:count 	0
attr interpolationmode  none
attr source  dropPkBitError
attr title  "packets dropped/bit error, count"
scalar scenarioPRJP1.node[19].lo0.lo 	droppedPkBitError:sum(packetBytes) 	0
attr interpolationmode  none
attr source  dropPkBitError
attr title  "packets dropped/bit error, sum(packetBytes)"
scalar scenarioPRJP1.node[19].lo0.lo 	rcvdPkFromHL:count 	0
attr interpolationmode  none
attr source  packetReceivedFromUpper
attr title  "packets received from higher layer, count"
scalar scenarioPRJP1.node[19].lo0.lo 	rcvdPkFromHL:sum(packetBytes) 	0
attr interpolationmode  none
attr source  packetReceivedFromUpper
attr title  "packets received from higher layer, sum(packetBytes)"
scalar scenarioPRJP1.node[19].lo0.lo 	passedUpPk:count 	0
attr interpolationmode  none
attr source  packetSentToUpper
attr title  "packets passed to higher layer, count"
scalar scenarioPRJP1.node[19].lo0.lo 	passedUpPk:sum(packetBytes) 	0
attr interpolationmode  none
attr source  packetSentToUpper
attr title  "packets passed to higher layer, sum(packetBytes)"
scalar scenarioPRJP1.node[39].app 	"Total sent" 	2601
scalar scenarioPRJP1.node[39].app 	"Total received" 	400
scalar scenarioPRJP1.node[39].app 	"Total deleted" 	78
scalar scenarioPRJP1.node[39].app 	dropPk:count 	78
attr interpolationmode  none
attr source  dropPk
attr title  "packets dropped, count"
scalar scenarioPRJP1.node[39].app 	dropPk:sum(packetBytes) 	39936
attr interpolationmode  none
attr source  dropPk
attr title  "packets dropped, sum(packetBytes)"
scalar scenarioPRJP1.node[39].app 	outOfOrderPk:count 	0
attr interpolationmode  none
attr source  outOfOrderPk
attr title  "packets received out of order, count"
scalar scenarioPRJP1.node[39].app 	outOfOrderPk:sum(packetBytes) 	0
attr interpolationmode  none
attr source  outOfOrderPk
attr title  "packets received out of order, sum(packetBytes)"
scalar scenarioPRJP1.node[39].app 	rcvdPk:count 	400
attr interpolationmode  none
attr source  rcvdPk
attr title  "packets received, count"
scalar scenarioPRJP1.node[39].app 	rcvdPk:sum(packetBytes) 	204800
attr interpolationmode  none
attr source  rcvdPk
attr title  "packets received, sum(packetBytes)"
statistic scenarioPRJP1.node[39].app 	endToEndDelay:histogram
field count 400
field mean 4.7716940871767
field stddev 5.9799588066981
field sum 1908.6776348707
field sqrsum 23375.828809232
field min 0.000945113176
field max 19.785504911293
attr interpolationmode  none
attr source  messageAge(rcvdPk)
attr title  "delay, histogram"
attr unit  s
bin	-INF	0
bin	-9.8703294209505	0
bin	-8.5541594721799	0
bin	-7.2379895234093	0
bin	-5.9218195746387	0
bin	-4.6056496258681	0
bin	-3.2894796770975	0
bin	-1.9733097283269	0
bin	-0.6571397795563	183
bin	0.6590301692143	29
bin	1.9752001179849	23
bin	3.2913700667555	11
bin	4.6075400155261	18
bin	5.9237099642967	15
bin	7.2398799130673	16
bin	8.5560498618379	15
bin	9.8722198106085	16
bin	11.188389759379	6
bin	12.50455970815	18
bin	13.82072965692	18
bin	15.136899605691	7
bin	16.453069554461	11
bin	17.769239503232	7
bin	19.085409452003	7
bin	20.401579400773	0
bin	21.717749349544	0
bin	23.033919298314	0
bin	24.350089247085	0
bin	25.666259195856	0
bin	26.982429144626	0
bin	28.298599093397	0
bin	29.614769042168	0
scalar scenarioPRJP1.node[39].app 	sentPk:count 	2601
attr interpolationmode  none
attr source  sentPk
attr title  "packets sent, count"
scalar scenarioPRJP1.node[39].app 	sentPk:sum(packetBytes) 	1331712
attr interpolationmode  none
attr source  sentPk
attr title  "packets sent, sum(packetBytes)"
scalar scenarioPRJP1.node[39].udp 	droppedPkBadChecksum:count 	0
attr interpolationmode  none
attr title  "packets dropped (checksum error), count"
scalar scenarioPRJP1.node[39].udp 	droppedPkWrongPort:count 	0
attr interpolationmode  none
attr title  "packets dropped (wrong port), count"
scalar scenarioPRJP1.node[39].udp 	passedUpPk:count 	478
attr interpolationmode  none
attr title  "packets passed up, count"
scalar scenarioPRJP1.node[39].udp 	rcvdPk:count 	478
attr interpolationmode  none
attr source  rcvdPk
attr title  "packets received, count"
scalar scenarioPRJP1.node[39].udp 	rcvdPk:sum(packetBytes) 	248560
attr interpolationmode  none
attr source  rcvdPk
attr title  "packets received, sum(packetBytes)"
scalar scenarioPRJP1.node[39].udp 	sentPk:count 	2601
attr interpolationmode  none
attr source  sentPk
attr title  "packets sent, count"
scalar scenarioPRJP1.node[39].udp 	sentPk:sum(packetBytes) 	1352520
attr interpolationmode  none
attr source  sentPk
attr title  "packets sent, sum(packetBytes)"
scalar scenarioPRJP1.node[39].networkLayer.arp 	failedARPResolution:count 	1
attr title  "ARP failed resolutions, count"
scalar scenarioPRJP1.node[39].networkLayer.arp 	completedARPResolution:count 	185
attr title  "ARP completed resolutions, count"
scalar scenarioPRJP1.node[39].networkLayer.arp 	initiatedARPResolution:count 	51
attr title  "ARP initiated resolutions, count"
scalar scenarioPRJP1.node[39].networkLayer.arp 	sentReply:count 	33
attr title  "ARP replies sent, count"
scalar scenarioPRJP1.node[39].networkLayer.arp 	sentReq:count 	72
attr title  "ARP request sent, count"
scalar scenarioPRJP1.node[39].mobility 	startTime 	2.5
scalar scenarioPRJP1.node[39].mobility 	totalTime 	947.5
scalar scenarioPRJP1.node[39].mobility 	stopTime 	950
scalar scenarioPRJP1.node[39].mobility 	minSpeed 	2.4755883566712e-13
scalar scenarioPRJP1.node[39].mobility 	maxSpeed 	19.885672963072
scalar scenarioPRJP1.node[39].mobility 	totalDistance 	10380.088879069
scalar scenarioPRJP1.node[39].mobility 	totalCO2Emission 	2700.1253146546
scalar scenarioPRJP1.node[39].wlan.mgmt 	dataQueueLen:max 	27
attr interpolationmode  sample-hold
attr title  "data queue length, max"
scalar scenarioPRJP1.node[39].wlan.mgmt 	dataQueueLen:timeavg 	0
attr interpolationmode  sample-hold
attr title  "data queue length, timeavg"
scalar scenarioPRJP1.node[39].wlan.mgmt 	dropPkByQueue:count 	0
attr interpolationmode  none
attr source  dropPkByQueue
attr title  "packets dropped by queue, count"
scalar scenarioPRJP1.node[39].wlan.mgmt 	dropPkByQueue:sum(packetBytes) 	0
attr interpolationmode  none
attr source  dropPkByQueue
attr title  "packets dropped by queue, sum(packetBytes)"
scalar scenarioPRJP1.node[39].wlan.mac 	"number of received packets" 	5028
scalar scenarioPRJP1.node[39].wlan.mac 	"number of collisions" 	12567
scalar scenarioPRJP1.node[39].wlan.mac 	"number of internal collisions" 	0
scalar scenarioPRJP1.node[39].wlan.mac 	"number of retry for AC 0" 	7992
scalar scenarioPRJP1.node[39].wlan.mac 	"number of retry for AC 1" 	6
scalar scenarioPRJP1.node[39].wlan.mac 	"number of retry for AC 2" 	0
scalar scenarioPRJP1.node[39].wlan.mac 	"number of retry for AC 3" 	0
scalar scenarioPRJP1.node[39].wlan.mac 	"sent and received bits" 	12512424
scalar scenarioPRJP1.node[39].wlan.mac 	"sent packet within AC 0" 	481
scalar scenarioPRJP1.node[39].wlan.mac 	"sent packet within AC 1" 	1
scalar scenarioPRJP1.node[39].wlan.mac 	"sent packet within AC 2" 	0
scalar scenarioPRJP1.node[39].wlan.mac 	"sent packet within AC 3" 	0
scalar scenarioPRJP1.node[39].wlan.mac 	"sent in TXOP " 	0
scalar scenarioPRJP1.node[39].wlan.mac 	"sentWithoutRetry AC 0" 	420
scalar scenarioPRJP1.node[39].wlan.mac 	"sentWithoutRetry AC 1" 	1
scalar scenarioPRJP1.node[39].wlan.mac 	"sentWithoutRetry AC 2" 	0
scalar scenarioPRJP1.node[39].wlan.mac 	"sentWithoutRetry AC 3" 	0
scalar scenarioPRJP1.node[39].wlan.mac 	"numGivenUp AC 0" 	1310
scalar scenarioPRJP1.node[39].wlan.mac 	"numGivenUp AC 1" 	1
scalar scenarioPRJP1.node[39].wlan.mac 	"numGivenUp AC 2" 	0
scalar scenarioPRJP1.node[39].wlan.mac 	"numGivenUp AC 3" 	0
scalar scenarioPRJP1.node[39].wlan.mac 	"numDropped AC 0" 	0
scalar scenarioPRJP1.node[39].wlan.mac 	"numDropped AC 1" 	0
scalar scenarioPRJP1.node[39].wlan.mac 	"numDropped AC 2" 	0
scalar scenarioPRJP1.node[39].wlan.mac 	"numDropped AC 3" 	0
scalar scenarioPRJP1.node[39].wlan.mac 	rcvdPkFromLL:count 	81230
attr interpolationmode  none
attr source  packetReceivedFromLower
attr title  "packets received from lower layer, count"
scalar scenarioPRJP1.node[39].wlan.mac 	rcvdPkFromLL:sum(packetBytes) 	22445148
attr interpolationmode  none
attr source  packetReceivedFromLower
attr title  "packets received from lower layer, sum(packetBytes)"
scalar scenarioPRJP1.node[39].wlan.mac 	sentDownPk:count 	25187
attr interpolationmode  none
attr source  packetSentToLower
attr title  "packets sent to lower layer, count"
scalar scenarioPRJP1.node[39].wlan.mac 	sentDownPk:sum(packetBytes) 	6830572
attr interpolationmode  none
attr source  packetSentToLower
attr title  "packets sent to lower layer, sum(packetBytes)"
scalar scenarioPRJP1.node[39].wlan.mac 	rcvdPkFromHL:count 	12161
attr interpolationmode  none
attr source  packetReceivedFromUpper
attr title  "packets received from higher layer, count"
scalar scenarioPRJP1.node[39].wlan.mac 	rcvdPkFromHL:sum(packetBytes) 	2295565
attr interpolationmode  none
attr source  packetReceivedFromUpper
attr title  "packets received from higher layer, sum(packetBytes)"
scalar scenarioPRJP1.node[39].wlan.mac 	passedUpPk:count 	27430
attr interpolationmode  none
attr source  packetSentToUpper
attr title  "packets passed to higher layer, count"
scalar scenarioPRJP1.node[39].wlan.mac 	passedUpPk:sum(packetBytes) 	4135984
attr interpolationmode  none
attr source  packetSentToUpper
attr title  "packets passed to higher layer, sum(packetBytes)"
statistic scenarioPRJP1.node[39].wlan.radio 	radioChannel:histogram
field count 1
field mean 3
field stddev -nan
field sum 3
field sqrsum 9
field min 3
field max 3
attr interpolationmode  sample-hold
attr source  radioChannelChanged
attr title  "Radio channel, histogram"
bin	-INF	0
bin	2	0
bin	3	1
bin	4	0
scalar scenarioPRJP1.node[39].wlan.radio 	transmissionState:count 	100748
attr interpolationmode  sample-hold
attr source  transmissionStateChanged
attr title  "Radio transmission state, count"
scalar scenarioPRJP1.node[39].wlan.radio 	receptionState:count 	214680
attr interpolationmode  sample-hold
attr source  receptionStateChanged
attr title  "Radio reception state, count"
scalar scenarioPRJP1.node[39].wlan.radio 	radioMode:count 	50376
attr interpolationmode  sample-hold
attr source  radioModeChanged
attr title  "Radio mode, count"
statistic scenarioPRJP1.node[39].wlan.radio 	symbolErrorRate:histogram
field count 0
field mean -nan
field stddev -nan
field sum 0
field sqrsum 0
field min -nan
field max -nan
attr source  symbolErrorRate
attr title  "Symbol error rate, histogram"
bin	-INF	0
bin	-0.5	0
bin	-0.46666666666667	0
bin	-0.43333333333333	0
bin	-0.4	0
bin	-0.36666666666667	0
bin	-0.33333333333333	0
bin	-0.3	0
bin	-0.26666666666667	0
bin	-0.23333333333333	0
bin	-0.2	0
bin	-0.16666666666667	0
bin	-0.13333333333333	0
bin	-0.1	0
bin	-0.066666666666667	0
bin	-0.033333333333333	0
bin	-6.9388939039072e-18	0
bin	0.033333333333333	0
bin	0.066666666666667	0
bin	0.1	0
bin	0.13333333333333	0
bin	0.16666666666667	0
bin	0.2	0
bin	0.23333333333333	0
bin	0.26666666666667	0
bin	0.3	0
bin	0.33333333333333	0
bin	0.36666666666667	0
bin	0.4	0
bin	0.43333333333333	0
bin	0.46666666666667	0
bin	0.5	0
statistic scenarioPRJP1.node[39].wlan.radio 	bitErrorRate:histogram
field count 0
field mean -nan
field stddev -nan
field sum 0
field sqrsum 0
field min -nan
field max -nan
attr source  bitErrorRate
attr title  "Bit error rate, histogram"
bin	-INF	0
bin	-0.5	0
bin	-0.46666666666667	0
bin	-0.43333333333333	0
bin	-0.4	0
bin	-0.36666666666667	0
bin	-0.33333333333333	0
bin	-0.3	0
bin	-0.26666666666667	0
bin	-0.23333333333333	0
bin	-0.2	0
bin	-0.16666666666667	0
bin	-0.13333333333333	0
bin	-0.1	0
bin	-0.066666666666667	0
bin	-0.033333333333333	0
bin	-6.9388939039072e-18	0
bin	0.033333333333333	0
bin	0.066666666666667	0
bin	0.1	0
bin	0.13333333333333	0
bin	0.16666666666667	0
bin	0.2	0
bin	0.23333333333333	0
bin	0.26666666666667	0
bin	0.3	0
bin	0.33333333333333	0
bin	0.36666666666667	0
bin	0.4	0
bin	0.43333333333333	0
bin	0.46666666666667	0
bin	0.5	0
statistic scenarioPRJP1.node[39].wlan.radio 	packetErrorRate:histogram
field count 81230
field mean 0.13814326288713
field stddev 0.33656409811907
field sum 11221.377244321
field sqrsum 10751.404494977
field min 0
field max 1
attr source  packetErrorRate
attr title  "Packet error rate, histogram"
bin	-INF	0
bin	-0.036036782384647	0
bin	-0.031231878066694	0
bin	-0.026426973748741	0
bin	-0.021622069430788	0
bin	-0.016817165112835	0
bin	-0.012012260794882	0
bin	-0.0072073564769294	0
bin	-0.0024024521589765	66181
bin	0.0024024521589765	708
bin	0.0072073564769294	406
bin	0.012012260794882	261
bin	0.016817165112835	186
bin	0.021622069430788	118
bin	0.026426973748741	134
bin	0.031231878066694	87
bin	0.036036782384647	115
bin	0.0408416867026	78
bin	0.045646591020553	75
bin	0.050451495338506	66
bin	0.055256399656459	52
bin	0.060061303974412	44
bin	0.064866208292365	53
bin	0.069671112610318	70
bin	0.074476016928271	49
bin	0.079280921246224	48
bin	0.084085825564177	39
bin	0.08889072988213	51
bin	0.093695634200083	24
bin	0.098500538518036	32
bin	0.10330544283599	32
bin	0.10811034715394	12321
statistic scenarioPRJP1.node[39].wlan.radio 	minSNIR:histogram
field count 81230
field mean 5828.8292450927
field stddev 56759.709345417
field sum 473475799.57888
field sqrsum 2.6445240378504e+14
field min 0.00017426797574022
field max 2986535.8161456
attr source  minSNIR
attr title  "Min SNIR, histogram"
bin	-INF	0
bin	-15555.562870524	0
bin	-13480.956129511	0
bin	-11406.349388499	0
bin	-9331.7426474859	0
bin	-7257.1359064731	0
bin	-5182.5291654604	0
bin	-3107.9224244476	0
bin	-1033.3156834349	71408
bin	1041.2910575779	4068
bin	3115.8977985906	1285
bin	5190.5045396033	663
bin	7265.1112806161	458
bin	9339.7180216288	359
bin	11414.324762642	280
bin	13488.931503654	274
bin	15563.538244667	157
bin	17638.14498568	209
bin	19712.751726693	114
bin	21787.358467705	475
bin	23861.965208718	202
bin	25936.571949731	32
bin	28011.178690743	43
bin	30085.785431756	34
bin	32160.392172769	38
bin	34234.998913782	21
bin	36309.605654794	33
bin	38384.212395807	18
bin	40458.81913682	20
bin	42533.425877833	12
bin	44608.032618845	28
bin	46682.639359858	999
scalar scenarioPRJP1.node[39].lo0.lo 	droppedPkBitError:count 	0
attr interpolationmode  none
attr source  dropPkBitError
attr title  "packets dropped/bit error, count"
scalar scenarioPRJP1.node[39].lo0.lo 	droppedPkBitError:sum(packetBytes) 	0
attr interpolationmode  none
attr source  dropPkBitError
attr title  "packets dropped/bit error, sum(packetBytes)"
scalar scenarioPRJP1.node[39].lo0.lo 	rcvdPkFromHL:count 	0
attr interpolationmode  none
attr source  packetReceivedFromUpper
attr title  "packets received from higher layer, count"
scalar scenarioPRJP1.node[39].lo0.lo 	rcvdPkFromHL:sum(packetBytes) 	0
attr interpolationmode  none
attr source  packetReceivedFromUpper
attr title  "packets received from higher layer, sum(packetBytes)"
scalar scenarioPRJP1.node[39].lo0.lo 	passedUpPk:count 	0
attr interpolationmode  none
attr source  packetSentToUpper
attr title  "packets passed to higher layer, count"
scalar scenarioPRJP1.node[39].lo0.lo 	passedUpPk:sum(packetBytes) 	0
attr interpolationmode  none
attr source  packetSentToUpper
attr title  "packets passed to higher layer, sum(packetBytes)"
